1

   Abaqus 6.13-1                                  Date 27-Apr-2014   Time 08:58:38
   For use at  under license from Dassault Systemes or its subsidiary.



                         The Abaqus Software is a product of:

                           Dassault Systemes Simulia Corp.
                                 Rising Sun Mills
                                 166 Valley Street
                           Providence, RI 02909-2499, USA
 


                   Available for internal use at . 
                   The Abaqus Online Support System is accessible
                   through the "My Support" section of the SIMULIA
                   Home Page at http://www.simulia.com.

                   Support policies for academic licenses are described
                   on the SIMULIA web site at
                   http://www.3ds.com/products/simulia/academics/
 
                          On machine coe7vlab155g 
                          you are authorized to run
                          Abaqus/Standard until 29-Jun-2014

                          Your site id is: 100000000002077 


 
                    For assistance or any other information you may
                    obtain contact information for your local office
                    from the world wide web at:

                      http://www.3ds.com/products/simulia/locations/

 
                * * * * * * * * * * * * * * * * * * * * * * * * * * * * * * 
                *                                                         * 
                *                   *****************                     * 
                *                   *  N O T I C E  *                     * 
                *                   *****************                     * 
                *                                                         * 
                *                                                         * 
                *                    Abaqus 6.13-1                        * 
                *                                                         * 
                *          BUILD ID: 2013_05_15-22.28.56 126354           * 
                *                                                         * 
                *                                                         * 
                *  Please make sure you are using release 6.13 manuals    * 
                *  plus the notes accompanying this release.              * 
                *                                                         * 
                *                                                         * 
                *                                                         * 
                *                                                         * 
                *                                                         * 
                *   This program may not be used for commercial purposes  * 
                *           without payment of a commercial fee.          * 
                *                                                         * 
                * * * * * * * * * * * * * * * * * * * * * * * * * * * * * * 


 



     PROCESSING PART, INSTANCE, AND ASSEMBLY INFORMATION
   *******************************************************


     END PROCESSING PART, INSTANCE, AND ASSEMBLY INFORMATION
   ***********************************************************




     OPTIONS BEING PROCESSED
   ***************************


  *Heading
  *node
  *NSET, NSET=A
  *NSET, NSET=B
  *NSET, NSET=C
  *NSET, NSET=D
  *NSET, NSET=E
  *NSET, NSET=F
  *NSET, NSET=G
  *NSET, NSET=H
  *Nfill, Nset=AB
  *Nfill, Nset=CD
  *Nfill, Nset=ABCD
  *Nfill, Nset=EF
  *Nfill, Nset=GH
  *Nfill, Nset=EFGH
  *Nfill, Nset=ABCDEFGH
  *Nfill, Nset=BD
  *Nfill, Nset=FH
  *Nfill, Nset=BDFH
  *Nfill, Nset=AC
  *Nfill, Nset=EG
  *Nfill, Nset=ACEG
  *ELEMENT, TYPE=C3D8
  *ELGEN, elset=allel
  *ELSET, ELSET=elset1
  *ELSET, ELSET=elset2
  *NSET, NSET=n1plus
  *NSET, NSET=n1minus
  *NSET, NSET=n2minus
  *NSET, NSET=n2plus
  *NSET, NSET=n2minus
  *NSET, NSET=n3minus
  *NSET, NSET=n3plus
  *NSET, NSET=n3minus_n1minus
  *NSET, NSET=n3minus_n1plus
  *NSET, NSET=n2minus_n3minus
  *NSET, NSET=n2plus_n3minus
  *NSET, NSET=n3plus_n1minus
  *NSET, NSET=n3plus_n1plus
  *NSET, NSET=n2minus_n3plus
  *NSET, NSET=n2plus_n3plus
  *NSET, NSET=n1plus_n2minus
  *NSET, NSET=n1plus_n2plus
  *NSET, NSET=n1minus_n2minus
  *NSET, NSET=n1minus_n2plus
  *Material, name=material-1
  *Elastic,type=isotropic
  *Material, name=material-2
  *Elastic,type=isotropic
  *Solid Section, elset=elset1, material=material-1
  *Solid Section, elset=elset2, material=material-2
  *Boundary
  *Equation
  *Solid Section, elset=elset1, material=material-1
  *Solid Section, elset=elset2, material=material-2
  *output, field, frequency=0
  *output, history, frequency=0
  *output, field, frequency=0
  *output, history, frequency=0
  *output, field, frequency=0
  *output, history, frequency=0
  *Step, name=Step-1
  *output, field, frequency=0
  *output, history, frequency=0
  *Step, name=Step-1
  *Step, name=Step-1
  *Static
  *Boundary
  *output, field, frequency=0
  *output, history, frequency=0
  *el print, summary=no, totals=yes
  *End Step
  *Step, name=Step-1
  *Static
  *Boundary
  *End Step



                            P R O B L E M   S I Z E


          NUMBER OF ELEMENTS IS                                  4913
          NUMBER OF NODES IS                                     5832
          NUMBER OF NODES DEFINED BY THE USER                    5832
          TOTAL NUMBER OF VARIABLES IN THE MODEL                17496
          (DEGREES OF FREEDOM PLUS MAX NO. OF ANY LAGRANGE MULTIPLIER
           VARIABLES. INCLUDE *PRINT,SOLVE=YES TO GET THE ACTUAL NUMBER.)



                              END OF USER INPUT PROCESSING



     JOB TIME SUMMARY
       USER TIME (SEC)      =  0.50000    
       SYSTEM TIME (SEC)    =  0.10000    
       TOTAL CPU TIME (SEC) =  0.60000    
       WALLCLOCK TIME (SEC) =          2
1

   Abaqus 6.13-1                                  Date 27-Apr-2014   Time 08:58:53
   For use at  under license from Dassault Systemes or its subsidiary.

                                                                                               STEP    1  INCREMENT    1
                                                                                          TIME COMPLETED IN THIS STEP   0.00    


                        S T E P       1     S T A T I C   A N A L Y S I S


                                                                                          

     AUTOMATIC TIME CONTROL WITH -
          A SUGGESTED INITIAL TIME INCREMENT OF                 1.00    
          AND A TOTAL TIME PERIOD OF                            1.00    
          THE MINIMUM TIME INCREMENT ALLOWED IS                1.000E-05
          THE MAXIMUM TIME INCREMENT ALLOWED IS                 1.00    

     LINEAR EQUATION SOLVER TYPE         DIRECT SPARSE
  
                   M E M O R Y   E S T I M A T E
  
 PROCESS      FLOATING PT       MINIMUM MEMORY        MEMORY TO
              OPERATIONS           REQUIRED          MINIMIZE I/O
             PER ITERATION         (MBYTES)           (MBYTES)
  
     1         1.85E+010               39                183
  
 NOTE:
      (1) SINCE ABAQUS DOES NOT PRE-ALLOCATE MEMORY AND ONLY ALLOCATES MEMORY AS NEEDED DURING THE ANALYSIS,
          THE MEMORY REQUIREMENT PRINTED HERE CAN ONLY BE VIEWED AS A GENERAL GUIDELINE BASED ON THE BEST
          KNOWLEDGE AVAILABLE AT THE BEGINNING OF A STEP BEFORE THE SOLUTION PROCESS HAS BEGUN.
      (2) THE ESTIMATE IS NORMALLY UPDATED AT THE BEGINNING OF EVERY STEP. IT IS THE MAXIMUM VALUE OF THE
          ESTIMATE FROM THE CURRENT STEP TO THE LAST STEP OF THE ANALYSIS, WITH UNSYMMETRIC SOLUTION TAKEN
          INTO ACCOUNT IF APPLICABLE. 
      (3) SINCE THE ESTIMATE IS BASED ON THE ACTIVE DEGREES OF FREEDOM IN THE FIRST ITERATION OF THE 
          CURRENT STEP, THE MEMORY ESTIMATE MIGHT BE SIGNIFICANTLY DIFFERENT THAN ACTUAL USAGE FOR 
          PROBLEMS WITH SUBSTANTIAL CHANGES IN ACTIVE DEGREES OF FREEDOM BETWEEN STEPS (OR EVEN WITHIN
          THE SAME STEP). EXAMPLES ARE: PROBLEMS WITH SIGNIFICANT CONTACT CHANGES, PROBLEMS WITH MODEL
          CHANGE, PROBLEMS WITH BOTH STATIC STEP AND STEADY STATE DYNAMIC PROCEDURES WHERE ACOUSTIC 
          ELEMENTS WILL ONLY BE ACTIVATED IN THE STEADY STATE DYNAMIC STEPS.
      (4) FOR MULTI-PROCESS EXECUTION, THE ESTIMATED VALUE OF FLOATING POINT OPERATIONS FOR EACH PROCESS
          IS BASED ON AN INITIAL SCHEDULING OF OPERATIONS AND MIGHT NOT REFLECT THE ACTUAL FLOATING 
          POINT OPERATIONS COMPLETED ON EACH PROCESS. OPERATIONS ARE DYNAMICALLY BALANCED DURING EXECUTION, 
          SO THE ACTUAL BALANCE OF OPERATIONS BETWEEN PROCESSES IS EXPECTED TO BE BETTER THAN THE ESTIMATE
          PRINTED HERE.
      (5) THE UPPER LIMIT OF MEMORY THAT CAN BE ALLOCATED BY ABAQUS WILL IN GENERAL DEPEND ON THE VALUE OF
          THE "MEMORY" PARAMETER AND THE AMOUNT OF PHYSICAL MEMORY AVAILABLE ON THE MACHINE. PLEASE SEE
          THE "ABAQUS ANALYSIS USER'S MANUAL" FOR MORE DETAILS. THE ACTUAL USAGE OF MEMORY AND OF DISK
          SPACE FOR SCRATCH DATA WILL DEPEND ON THIS UPPER LIMIT AS WELL AS THE MEMORY REQUIRED TO MINIMIZE
          I/O. IF THE MEMORY UPPER LIMIT IS GREATER THAN THE MEMORY REQUIRED TO MINIMIZE I/O, THEN THE ACTUAL
          MEMORY USAGE WILL BE CLOSE TO THE ESTIMATED "MEMORY TO MINIMIZE I/O" VALUE, AND THE SCRATCH DISK
          USAGE WILL BE CLOSE-TO-ZERO; OTHERWISE, THE ACTUAL MEMORY USED WILL BE CLOSE TO THE PREVIOUSLY
          MENTIONED MEMORY LIMIT, AND THE SCRATCH DISK USAGE WILL BE ROUGHLY PROPORTIONAL TO THE DIFFERENCE
          BETWEEN THE ESTIMATED "MEMORY TO MINIMIZE I/O" AND THE MEMORY UPPER LIMIT. HOWEVER ACCURATE
          ESTIMATE OF THE SCRATCH DISK SPACE IS NOT POSSIBLE.
      (6) USING "*RESTART, WRITE" CAN GENERATE A LARGE AMOUNT OF DATA WRITTEN IN THE WORK DIRECTORY.


                                INCREMENT     1 SUMMARY


 TIME INCREMENT COMPLETED   1.00    ,  FRACTION OF STEP COMPLETED   1.00    
 STEP TIME COMPLETED        1.00    ,  TOTAL TIME COMPLETED         1.00    



                                                  E L E M E N T   O U T P U T





   THE FOLLOWING TABLE IS PRINTED FOR ALL ELEMENTS WITH TYPE C3D8 AT THE INTEGRATION POINTS

    ELEMENT  PT FOOT-       E11         E22         E33         E12         E13         E23         
                NOTE 

           1   1         1.2152E-03 -6.2746E-05 -4.6872E-05 -9.3359E-05 -3.3824E-05  5.7999E-06
           1   2         1.1703E-03 -4.0099E-05 -2.4625E-05 -8.4683E-05 -3.7376E-05  3.2379E-06
           1   3         1.2309E-03 -7.1882E-05 -5.3447E-05 -9.6292E-05  9.7689E-07  5.4010E-06
           1   4         1.1654E-03 -3.8894E-05 -2.0858E-05 -9.2723E-05 -1.2677E-05  2.8389E-06
           1   5         1.2007E-03 -6.8562E-05 -2.6564E-05 -1.6090E-04 -1.1538E-05  1.4476E-05
           1   6         1.1592E-03 -4.2548E-05 -1.1051E-05 -1.5222E-04 -4.6114E-05  6.8068E-06
           1   7         1.2181E-03 -8.1103E-05 -3.1436E-05 -1.9486E-04  2.3262E-05  3.9751E-06
           1   8         1.1559E-03 -4.4748E-05 -5.5816E-06 -1.9129E-04 -2.1415E-05 -3.6937E-06
           2   1         1.1742E-03 -4.6573E-05 -2.6364E-05 -1.2984E-04 -3.6162E-05  2.1775E-05
           2   2         1.2338E-03 -8.3258E-05 -4.9275E-05 -1.4902E-04 -2.9296E-05  4.8973E-05
           2   3         1.1399E-03 -1.5804E-05 -2.2793E-05 -1.3394E-04 -1.9929E-05  3.5550E-05
           2   4         1.1670E-03 -3.6263E-05 -2.9478E-05 -1.4779E-04 -2.6089E-05  6.2747E-05
           2   5         1.1752E-03 -6.4766E-05 -9.1512E-06 -3.3564E-05 -7.4073E-05  3.1977E-05
           2   6         1.2391E-03 -9.7108E-05 -4.0746E-05 -5.2737E-05 -1.1588E-04  6.4495E-05
           2   7         1.1391E-03 -3.0450E-05 -7.3537E-06 -8.6339E-05 -5.7840E-05  3.2724E-05
           2   8         1.1706E-03 -4.6566E-05 -2.2723E-05 -1.0019E-04 -1.1268E-04  6.5243E-05
           3   1         1.3280E-03  2.9734E-05 -7.7263E-06  1.2099E-04 -3.9480E-06  3.8209E-05
           3   2         1.3799E-03 -1.2744E-05 -1.7155E-05  1.6508E-04  5.8436E-05  4.0124E-06
           3   3         1.2602E-03  4.6556E-05  4.3293E-05  1.7983E-04 -4.7244E-06  7.1257E-05
           3   4         1.2857E-03  1.7242E-05  4.7027E-05  2.1501E-04  5.9806E-05  3.7060E-05
           3   5         1.3136E-03  5.9387E-05 -2.2941E-05  2.1537E-04 -1.2281E-04  4.9008E-05
           3   6         1.3648E-03  1.6194E-05 -3.0939E-05  2.5947E-04 -9.9915E-05  5.9002E-06
           3   7         1.2487E-03  7.0268E-05  3.1049E-05  2.3472E-04 -1.2359E-04  8.4203E-05
           3   8         1.2736E-03  4.0239E-05  3.6214E-05  2.6990E-04 -9.8545E-05  4.1095E-05
           4   1         1.3696E-03 -3.0132E-05 -2.3904E-05  2.8321E-04  8.1605E-05  1.2780E-05
           4   2         1.3127E-03  1.2708E-05 -9.8337E-06  2.4754E-04  8.2519E-05  2.8991E-05
           4   3         1.2502E-03  3.7707E-05  2.7725E-05  2.8865E-04  8.7913E-05 -1.5990E-05
           4   4         1.1964E-03  7.8990E-05  4.0238E-05  2.4212E-04  1.0017E-04  2.2078E-07
           4   5         1.3794E-03 -5.6015E-05 -7.8082E-06  1.8346E-04 -8.9491E-05 -1.6788E-05
           4   6         1.3187E-03 -1.6957E-05  1.3825E-05  1.4779E-04 -8.3906E-05 -1.1434E-05
           4   7         1.2636E-03  4.5865E-06  4.7439E-05  1.9357E-04 -8.3183E-05 -3.4213E-05
           4   8         1.2060E-03  4.2088E-05  6.7515E-05  1.4705E-04 -6.6253E-05 -2.8859E-05
           5   1         1.2155E-03 -4.7641E-05 -4.9657E-05  2.0746E-06  7.7075E-05  8.5676E-06
           5   2         1.1564E-03 -1.5249E-05 -2.2925E-05  1.0540E-05  6.1289E-05 -8.9867E-06
           5   3         1.1190E-03 -8.1744E-06  7.3635E-06 -3.0121E-05  9.8105E-05  2.9074E-06
           5   4         1.0803E-03  1.4011E-05  2.3889E-05 -5.6190E-06  8.0199E-05 -1.4647E-05
           5   5         1.2057E-03 -4.9007E-05 -3.8459E-05 -8.9441E-05 -7.6433E-05 -1.7987E-05
           5   6         1.1472E-03 -1.5909E-05 -1.3140E-05 -8.0976E-05 -6.1599E-05 -1.9505E-05
           5   7         1.1038E-03  1.1503E-06  1.3216E-05 -9.1018E-05 -5.5403E-05 -2.5767E-05
           5   8         1.0658E-03  2.4042E-05  2.8328E-05 -6.6516E-05 -4.2689E-05 -2.7285E-05
           6   1         1.1127E-03 -2.4949E-05 -2.3333E-05 -1.5527E-05  4.2325E-05 -3.0120E-05
           6   2         1.0953E-03 -2.2503E-05 -8.3835E-06 -5.8099E-06  6.3009E-06 -2.8988E-05
           6   3         1.0562E-03  3.8496E-06  4.3335E-06 -5.3404E-05  5.5278E-05 -1.7616E-05
           6   4         1.0890E-03 -1.8792E-05 -5.8047E-06 -4.8656E-05  5.0959E-06 -1.6484E-05
           6   5         1.1051E-03 -2.2788E-05 -1.7938E-05 -3.5369E-05 -4.1807E-05 -3.1056E-05
           6   6         1.0925E-03 -1.5623E-05 -1.2426E-05 -2.5652E-05 -2.5675E-06 -3.4894E-05
           6   7         1.0503E-03  2.6976E-06  1.1386E-05  2.0173E-06 -2.8855E-05 -3.2710E-05
           6   8         1.0878E-03 -1.5225E-05 -8.1907E-06  6.7655E-06 -3.7725E-06 -3.6547E-05
           7   1         1.1085E-03  6.0736E-06 -3.1447E-06  1.6877E-06 -2.7611E-05  2.4611E-06
           7   2         1.1313E-03  1.4468E-05 -3.4337E-05  4.5916E-06 -8.4236E-05  1.0308E-05
           7   3         1.1340E-03 -2.7576E-06 -1.9822E-05 -5.2601E-05 -3.0019E-05 -3.7126E-05
           7   4         1.1996E-03 -1.5770E-05 -7.2422E-05 -4.3501E-05 -7.5774E-05 -2.9279E-05
           7   5         1.1083E-03  8.8122E-06 -5.7180E-06  1.6090E-05  1.4575E-05 -1.1706E-05
           7   6         1.1275E-03  1.3583E-05 -2.9663E-05  1.8994E-05  2.2171E-05  2.3363E-06
           7   7         1.1317E-03  4.1113E-06 -2.4461E-05  2.6023E-05  1.2167E-05 -4.0422E-05
           7   8         1.1937E-03 -1.2524E-05 -6.9813E-05  3.5122E-05  3.0634E-05 -2.6380E-05
           8   1         1.1462E-03 -5.6439E-06 -3.9608E-05 -1.3515E-05 -8.1722E-05 -1.6617E-05
           8   2         1.1544E-03 -2.0583E-05 -3.2800E-05 -7.5062E-06 -1.8226E-05 -2.3139E-05
           8   3         1.2184E-03 -4.4985E-05 -7.2428E-05  4.0559E-05 -7.2775E-05  5.1299E-06
           8   4         1.1811E-03 -3.7219E-05 -4.2914E-05  5.5588E-05 -1.8829E-05 -1.3915E-06
           8   5         1.1412E-03 -4.6202E-06 -3.5646E-05  9.5565E-06  2.3260E-05  4.5038E-06
           8   6         1.1526E-03 -1.6377E-05 -3.5205E-05  1.5565E-05  1.8638E-05  7.0026E-06
           8   7         1.2104E-03 -3.7948E-05 -7.1473E-05 -4.4866E-06  3.2206E-05  1.6702E-05
           8   8         1.1763E-03 -2.6999E-05 -4.8326E-05  1.0542E-05  1.8036E-05  1.9201E-05
           9   1         1.1165E-03 -1.2353E-05 -4.7740E-05 -6.2841E-05  1.0298E-05 -1.9445E-05
           9   2         1.0710E-03  1.4907E-05 -2.9459E-05 -6.5217E-05  2.4732E-05 -2.6742E-05
           9   3         1.1287E-03 -2.2095E-05 -5.0185E-05 -4.2627E-05  6.7034E-06 -2.8425E-05
           9   4         1.0881E-03  2.7073E-06 -3.4362E-05 -5.9724E-05  2.2512E-05 -3.5721E-05
           9   5         1.1185E-03 -1.2739E-05 -4.9344E-05 -1.3564E-04  2.4929E-05  3.4327E-07
           9   6         1.0725E-03  1.4063E-05 -3.0146E-05 -1.3802E-04  4.6738E-05 -2.1673E-05
           9   7         1.1356E-03 -3.2294E-05 -4.6882E-05 -1.0806E-04  2.1335E-05 -7.2615E-06
           9   8         1.0945E-03 -7.9502E-06 -3.0143E-05 -1.2515E-04  4.4518E-05 -2.9278E-05
          10   1         1.0876E-03  3.2886E-05 -2.1596E-05 -1.8121E-04  1.5846E-05 -8.2328E-06
          10   2         1.1463E-03  3.2073E-06 -5.0597E-05 -1.9145E-04 -2.2866E-05  2.1205E-05
          10   3         1.1002E-03  4.1327E-05 -4.2593E-05 -2.2600E-04  1.0336E-05 -7.5548E-06
          10   4         1.1749E-03  3.5919E-06 -7.9650E-05 -2.3146E-04 -3.8737E-05  2.1883E-05
          10   5         1.0928E-03  2.7894E-05 -2.1855E-05 -9.2854E-05  4.9398E-05 -1.3309E-05
          10   6         1.1550E-03  1.6693E-06 -5.7763E-05 -1.0310E-04  3.4856E-05  2.0905E-05
          10   7         1.1038E-03  3.9519E-05 -4.4444E-05 -1.1347E-04  4.3889E-05 -2.2993E-05
          10   8         1.1821E-03  5.2381E-06 -8.8409E-05 -1.1894E-04  1.8985E-05  1.1221E-05
          11   1         1.2361E-03  1.0971E-04 -2.5192E-05  8.8627E-06 -3.5240E-05  2.4826E-05
          11   2         1.2977E-03  7.4937E-05 -5.1992E-05  1.4507E-05 -3.0337E-05  6.4110E-06
          11   3         1.2731E-03  8.2009E-05 -3.4480E-05  2.0056E-05 -5.0390E-05  3.2801E-05
          11   4         1.2977E-03  6.5710E-05 -4.2805E-05  2.5260E-05 -3.3153E-05  1.4386E-05
          11   5         1.2393E-03  1.1853E-04 -3.7173E-05  1.0521E-04  1.1040E-05  2.0111E-05
          11   6         1.2968E-03  7.9639E-05 -5.5752E-05  1.1086E-04 -3.9485E-05  1.2550E-06
          11   7         1.2764E-03  9.0528E-05 -4.6315E-05  6.0980E-05 -4.1096E-06  4.0420E-05
          11   8         1.2969E-03  7.0117E-05 -4.6417E-05  6.6183E-05 -4.2302E-05  2.1564E-05
          12   1         1.3156E-03 -1.0693E-04 -2.9591E-05  1.7788E-04 -4.8194E-05 -6.9336E-06
          12   2         1.2561E-03 -8.8616E-05  1.1600E-05  1.7223E-04 -1.0188E-04  5.1410E-06
          12   3         1.3004E-03 -9.3294E-05 -2.8028E-05  1.3427E-04 -4.2222E-05  1.5942E-05
          12   4         1.2640E-03 -8.6519E-05  1.6218E-06  1.1879E-04 -8.4233E-05  2.8017E-05
          12   5         1.3155E-03 -1.1269E-04 -2.3724E-05  1.0006E-04 -6.4957E-05 -2.3837E-05
          12   6         1.2521E-03 -9.8270E-05  2.5252E-05  9.4403E-05 -8.4023E-05 -2.1591E-05
          12   7         1.3036E-03 -1.0561E-04 -1.8885E-05  9.1074E-05 -5.8985E-05  1.0716E-05
          12   8         1.2632E-03 -1.0273E-04  1.8550E-05  7.5589E-05 -6.6373E-05  1.2963E-05
          13   1         1.2546E-03  2.2256E-05  4.5822E-05 -1.1373E-04 -9.3258E-05 -1.5951E-05
          13   2         1.2767E-03 -1.8638E-05  6.4633E-05 -1.4815E-04 -1.6006E-05 -3.4311E-05
          13   3         1.2724E-03  4.1763E-06  4.6103E-05 -5.8143E-05 -7.7267E-05  4.3753E-05
          13   4         1.2708E-03 -2.4864E-05  7.6767E-05 -6.2036E-05 -1.6224E-05  2.5393E-05
          13   5         1.2608E-03 -6.0262E-06  6.7959E-05 -5.0751E-05 -7.5740E-05 -5.6061E-06
          13   6         1.2883E-03 -4.1516E-05  7.5964E-05 -8.5178E-05 -3.4047E-05  6.5675E-06
          13   7         1.2684E-03 -3.7498E-06  5.8062E-05 -3.0726E-05 -5.9749E-05  3.7889E-05
          13   8         1.2722E-03 -2.7387E-05  7.7919E-05 -3.4619E-05 -3.4265E-05  5.0063E-05
          14   1         1.3039E-03 -3.4402E-05  9.7733E-05 -1.7510E-04  3.3474E-05 -1.6978E-05
          14   2         1.2909E-03 -2.8011E-05  1.0434E-04 -1.4010E-04  9.1403E-05 -1.6722E-05
          14   3         1.2714E-03 -1.8050E-05  1.1383E-04 -1.0305E-04  2.4675E-05 -1.6765E-05
          14   4         1.2266E-03  4.2640E-06  1.3636E-04 -1.0167E-04  7.5371E-05 -1.6508E-05
          14   5         1.2951E-03 -8.1344E-06  8.0200E-05 -1.9449E-04 -1.5068E-05  1.6383E-05
          14   6         1.2845E-03  6.6736E-07  8.1982E-05 -1.5949E-04 -4.9095E-06 -1.6978E-05
          14   7         1.2739E-03 -1.4194E-05  1.0750E-04 -1.7021E-04 -2.3867E-05  9.3630E-06
          14   8         1.2314E-03  1.0531E-05  1.2521E-04 -1.6882E-04 -2.0941E-05 -2.3998E-05
          15   1         1.2340E-03  4.9802E-07  6.7021E-05  6.4154E-05  8.9274E-05 -1.8709E-05
          15   2         1.2012E-03  3.2042E-05  6.8209E-05  4.6120E-05  2.5526E-05 -4.2334E-05
          15   3         1.1772E-03  1.7078E-05  1.0723E-04 -1.4063E-06  7.3936E-05 -4.9066E-05
          15   4         1.1751E-03  3.3313E-05  9.3105E-05  1.2904E-05  1.9317E-05 -7.2690E-05
          15   5         1.2451E-03 -6.4114E-06  6.2807E-05 -1.2216E-07 -7.7146E-06 -3.7578E-05
          15   6         1.2093E-03  2.2090E-05  7.0081E-05 -1.8155E-05 -2.5537E-05 -2.8859E-05
          15   7         1.1775E-03  3.1731E-05  9.2230E-05 -1.9756E-05 -2.3053E-05 -5.8806E-05
          15   8         1.1724E-03  4.4923E-05  8.4195E-05 -5.4461E-06 -3.1746E-05 -5.0087E-05
          16   1         1.2401E-03  6.3440E-05  6.9147E-05  5.5434E-05  8.4444E-06 -4.3026E-05
          16   2         1.3220E-03  3.7347E-05  1.3370E-05  8.8034E-05  2.5525E-05 -6.1754E-06
          16   3         1.2122E-03  9.5838E-05  6.4695E-05  8.9452E-05  6.1760E-06 -7.2710E-05
          16   4         1.3136E-03  5.9949E-05 -8.7865E-07  9.0754E-05  2.4894E-05 -3.5860E-05
          16   5         1.2300E-03  8.5929E-05  5.6768E-05  1.6340E-04 -1.5050E-05 -1.5192E-05
          16   6         1.3113E-03  5.9291E-05  2.0832E-06  1.9599E-04  3.1421E-05 -9.6392E-06
          16   7         1.2125E-03  9.7462E-05  6.2748E-05  2.2680E-04 -1.7319E-05 -4.3238E-05
          16   8         1.3134E-03  6.1027E-05 -1.7331E-06  2.2811E-04  3.0790E-05 -3.7686E-05
          17   1         1.3284E-03  4.4586E-05 -1.5319E-05  8.0547E-05  1.8188E-05  3.1101E-05
          17   2         1.2909E-03  7.7897E-05 -1.1093E-05  5.3017E-05 -1.8935E-05  2.8625E-05
          17   3         1.3427E-03  3.6188E-05 -2.1242E-05  4.6934E-05  2.6299E-05  2.0163E-06
          17   4         1.3117E-03  6.6230E-05 -2.0285E-05  3.4926E-05  1.1420E-05 -4.5960E-07
          17   5         1.3349E-03  2.3529E-05 -7.3553E-07  9.6986E-06  3.8432E-05 -1.7833E-06
          17   6         1.2899E-03  4.9425E-05  1.8321E-05 -1.7831E-05  1.1116E-05  1.1263E-05
          17   7         1.3440E-03  2.5478E-05 -1.1832E-05 -1.4107E-05  4.6543E-05 -8.6231E-06
          17   8         1.3056E-03  4.8106E-05  3.9552E-06 -2.6115E-05  4.1471E-05  4.4227E-06
          18   1         1.2071E-03 -6.3506E-05 -3.4674E-05 -9.9502E-05  2.2395E-05 -2.0372E-05
          18   2         1.1277E-03 -3.0310E-05  1.1555E-05 -1.0638E-04 -2.2711E-06  3.6285E-05
          18   3         1.1507E-03 -6.9917E-06 -3.4817E-05 -1.0534E-04  6.1152E-06 -7.3384E-06
          18   4         1.0664E-03  2.8663E-05  1.3871E-05 -1.3566E-04 -1.4780E-05  4.9318E-05
          18   5         1.2148E-03 -6.2666E-05 -4.3234E-05 -2.1212E-04 -3.3833E-05 -1.8321E-05
          18   6         1.1341E-03 -3.0727E-05  5.5088E-06 -2.1900E-04 -6.5877E-05  1.4894E-05
          18   7         1.1662E-03 -2.1780E-05 -3.5563E-05 -2.2533E-04 -5.0113E-05 -1.5175E-06
          18   8         1.0806E-03  1.2618E-05  1.5639E-05 -2.5566E-04 -7.8386E-05  3.1697E-05
          19   1         1.0801E-03 -2.9476E-05  3.5608E-06 -1.2302E-04  5.1035E-06  8.1209E-05
          19   2         1.0949E-03 -4.1342E-05  6.4575E-07 -1.2537E-04  4.9917E-05  7.2461E-05
          19   3         1.0368E-03 -1.2160E-05  2.9624E-05 -8.9105E-05  5.5397E-08  9.0160E-05
          19   4         1.0458E-03 -2.1169E-05  2.9567E-05 -6.5345E-05  6.1483E-05  8.1412E-05
          19   5         1.0826E-03 -2.9359E-05  9.7814E-07 -9.6378E-05 -6.4340E-05  6.8052E-05
          19   6         1.0919E-03 -4.6763E-05  9.1389E-06 -9.8726E-05 -2.8098E-05  8.5412E-05
          19   7         1.0305E-03  5.3627E-06  1.8339E-05 -7.1029E-05 -6.9388E-05  9.3616E-05
          19   8         1.0341E-03 -9.1840E-06  2.9357E-05 -4.7270E-05 -1.6532E-05  1.1098E-04
          20   1         1.1316E-03 -2.9552E-05  2.0744E-06  2.0833E-04  7.1104E-05  6.7609E-05
          20   2         1.1739E-03 -3.5509E-05 -3.4236E-05  2.2833E-04  8.4173E-05  5.2883E-05
          20   3         1.0876E-03 -1.4914E-05  3.1439E-05  2.2737E-04  8.4392E-05  3.7255E-05
          20   4         1.1440E-03 -2.7961E-05 -1.1963E-05  2.1481E-04  8.5555E-05  2.2530E-05
          20   5         1.1205E-03 -2.0649E-05  4.2671E-06  2.5656E-04 -2.2628E-06  8.5076E-05
          20   6         1.1667E-03 -2.2637E-05 -3.9982E-05  2.7656E-04  3.2078E-05  3.7786E-05
          20   7         1.0874E-03 -2.7720E-05  4.4486E-05  2.9687E-04  1.1026E-05  4.2815E-05
          20   8         1.1478E-03 -3.6799E-05 -6.8534E-06  2.8430E-04  3.3459E-05 -4.4747E-06
          21   1         1.1595E-03  1.6295E-05 -4.6601E-05  2.6739E-04  7.2928E-05 -1.4104E-05
          21   2         1.1073E-03  3.6592E-05 -1.4690E-05  2.2548E-04  2.9135E-05 -3.5589E-05
          21   3         1.1510E-03  9.7867E-06 -3.1624E-05  2.0386E-04  6.7062E-05 -2.4898E-06
          21   4         1.1368E-03  1.1082E-05 -1.8714E-05  1.8542E-04  1.5377E-05 -2.3975E-05
          21   5         1.1754E-03 -9.6900E-06 -3.6541E-05  1.9488E-04  4.9483E-05 -4.2715E-05
          21   6         1.1258E-03  1.3237E-05 -9.8918E-06  1.5297E-04  6.2695E-05 -4.0732E-05
          21   7         1.1591E-03 -5.5306E-07 -2.9387E-05  1.8836E-04  4.3617E-05 -3.8993E-05
          21   8         1.1475E-03  3.3728E-06 -2.1739E-05  1.6992E-04  4.8936E-05 -3.7010E-05
          22   1         1.0818E-03 -1.2647E-05  4.0241E-06 -4.1627E-05  1.0736E-05 -2.7501E-05
          22   2         1.0579E-03 -1.2983E-06  1.6575E-05 -1.5959E-05  4.2612E-06 -5.2997E-06
          22   3         1.1204E-03 -2.0801E-05 -2.6332E-05 -4.0868E-05 -1.9961E-06 -2.6299E-05
          22   4         1.1228E-03 -2.2603E-05 -2.6931E-05 -2.8049E-05  2.2252E-06 -4.0971E-06
          22   5         1.0775E-03  8.7096E-06 -1.3020E-05 -7.6876E-05  7.9602E-05 -2.8373E-05
          22   6         1.0501E-03  1.6493E-05  6.6617E-06 -5.1207E-05  1.1258E-04 -1.9020E-05
          22   7         1.1203E-03 -8.0107E-06 -3.9093E-05 -3.6663E-05  6.6869E-05 -1.6474E-05
          22   8         1.1192E-03 -1.3379E-05 -3.2562E-05 -2.3844E-05  1.1054E-04 -7.1213E-06
          23   1         1.0723E-03  1.0058E-05  2.7288E-05 -6.6953E-05  9.4027E-07  1.6375E-05
          23   2         1.1094E-03 -1.7970E-05  1.8147E-05 -6.1505E-05 -1.6576E-06  9.2293E-06
          23   3         1.1446E-03 -2.9701E-05 -5.3257E-06 -6.6089E-05  6.3871E-06  3.5261E-05
          23   4         1.1494E-03 -4.1545E-05  1.7168E-06 -5.3760E-05  1.3536E-05  2.8116E-05
          23   5         1.0686E-03  1.1875E-05  2.9104E-05 -1.7539E-06  1.0593E-04 -1.0791E-05
          23   6         1.1026E-03 -1.9403E-05  2.6460E-05  3.6941E-06  5.4777E-05 -1.1055E-05
          23   7         1.1387E-03 -2.3297E-05 -5.8042E-06 -4.9444E-05  1.1137E-04  1.7843E-05
          23   8         1.1403E-03 -3.8390E-05  7.7364E-06 -3.7115E-05  6.9971E-05  1.7578E-05
          24   1         1.2044E-03  2.5572E-05  6.6478E-05 -7.8967E-05 -8.0554E-06 -4.5219E-05
          24   2         1.2680E-03 -2.0697E-05  4.9120E-05 -6.4103E-05 -2.2937E-05 -7.9388E-05
          24   3         1.2467E-03 -1.2684E-05  6.2392E-05 -9.6712E-05  8.0161E-06 -1.6308E-05
          24   4         1.3245E-03 -6.6025E-05  3.7963E-05 -7.2296E-05 -1.4215E-05 -5.0477E-05
          24   5         1.1941E-03  3.0124E-05  7.2238E-05  3.0929E-05  3.8373E-05 -4.0267E-05
          24   6         1.2601E-03 -1.3695E-05  4.9980E-05  4.5792E-05  4.4707E-05 -6.4885E-05
          24   7         1.2332E-03 -1.7642E-06  6.4968E-05  3.4399E-05  5.4444E-05 -1.8706E-05
          24   8         1.3134E-03 -5.2655E-05  3.5638E-05  5.8815E-05  5.3428E-05 -4.3323E-05
          25   1         1.2875E-03 -2.4238E-05  5.3232E-05  6.0762E-05 -3.0474E-05 -4.6531E-05
          25   2         1.2470E-03  1.7768E-05  5.1733E-05  7.3700E-05 -3.6187E-05 -4.1940E-06
          25   3         1.3153E-03 -1.6971E-05  1.8162E-05  6.1883E-05 -2.4803E-05 -9.0037E-05
          25   4         1.2519E-03  3.6451E-05  2.8078E-05  6.0088E-05 -3.1500E-05 -4.7699E-05
          25   5         1.2813E-03 -1.7503E-05  5.2700E-05 -2.1751E-05  3.2399E-05 -3.5964E-05
          25   6         1.2411E-03  2.4832E-05  5.0544E-05 -8.8133E-06 -7.5589E-06 -8.3604E-06
          25   7         1.3140E-03 -2.0058E-05  2.2541E-05 -5.4876E-05  3.8070E-05 -8.0455E-05
          25   8         1.2510E-03  3.3692E-05  3.1800E-05 -5.6671E-05 -2.8728E-06 -5.2851E-05
          26   1         1.1367E-03 -3.6827E-05 -1.2448E-05 -3.1999E-05 -3.1199E-05 -1.1586E-05
          26   2         1.0843E-03 -1.8824E-05  2.1994E-05 -4.8474E-05 -1.1860E-05 -4.3299E-05
          26   3         1.1529E-03 -6.0760E-05 -4.6681E-06 -2.3175E-05 -3.0658E-05  4.8542E-06
          26   4         1.0863E-03 -3.5727E-05  3.6805E-05 -2.3234E-05 -2.1660E-05 -2.6859E-05
          26   5         1.1420E-03 -4.7991E-05 -6.5961E-06 -1.0245E-04 -2.2826E-05 -1.1905E-05
          26   6         1.0930E-03 -2.6541E-05  2.0953E-05 -1.1892E-04 -2.4580E-05 -2.7203E-05
          26   7         1.1527E-03 -6.0980E-05 -4.2878E-06 -1.1472E-04 -2.2286E-05 -5.8057E-06
          26   8         1.0896E-03 -3.2500E-05  3.0292E-05 -1.1477E-04 -3.4379E-05 -2.1103E-05
          27   1         1.1419E-03  9.2964E-05  5.1081E-05 -2.3941E-04 -8.8021E-06 -3.1830E-05
          27   2         1.2454E-03  5.1035E-05 -1.0457E-05 -2.4695E-04 -1.9786E-05  2.7988E-06
          27   3         1.1328E-03  1.1486E-04  3.8344E-05 -2.3127E-04 -1.4674E-05 -5.1440E-05
          27   4         1.2800E-03  5.1050E-05 -4.5071E-05 -2.4926E-04 -4.5858E-06 -1.6811E-05
          27   5         1.1464E-03  8.9892E-05  4.9681E-05 -9.4013E-05 -5.2196E-06 -2.4591E-05
          27   6         1.2428E-03  4.0939E-05  2.1910E-06 -1.0156E-04  4.9426E-05 -4.1397E-07
          27   7         1.1407E-03  1.0482E-04  4.0428E-05 -2.0243E-05 -1.1091E-05 -2.3129E-05
          27   8         1.2809E-03  3.3987E-05 -2.8939E-05 -3.8238E-05  6.4626E-05  1.0481E-06
          28   1         1.3035E-03  6.1714E-05 -1.4318E-05  2.1497E-05 -2.2945E-05  2.1592E-05
          28   2         1.3010E-03  7.0996E-05 -2.1089E-05  2.5548E-05 -2.0591E-05  8.6479E-06
          28   3         1.3483E-03  3.2816E-05 -3.0272E-05  1.4241E-05 -3.8526E-06  5.5392E-06
          28   4         1.2868E-03  7.1629E-05 -7.5117E-06  1.5584E-05 -1.1937E-05 -7.4050E-06
          28   5         1.2958E-03  5.8051E-05 -2.9402E-06  9.7046E-06  3.7862E-05  2.7030E-05
          28   6         1.2967E-03  7.0812E-05 -1.6670E-05  1.3756E-05 -4.8379E-05  1.1379E-05
          28   7         1.3415E-03  2.7348E-05 -1.7992E-05 -8.6146E-05  5.6954E-05  5.3875E-07
          28   8         1.2834E-03  6.9641E-05 -2.1904E-06 -8.4803E-05 -3.9725E-05 -1.5113E-05
          29   1         1.2590E-03 -9.0231E-05 -5.0779E-05  1.0916E-04 -2.6714E-05  2.8928E-05
          29   2         1.2342E-03 -7.8224E-05 -3.7904E-05  9.1839E-05 -4.5795E-05  5.4866E-05
          29   3         1.2060E-03 -5.0746E-05 -3.7232E-05  8.4172E-05 -2.2459E-05  2.9796E-05
          29   4         1.1695E-03 -3.2945E-05 -1.8562E-05  7.1652E-05 -4.3118E-05  5.5734E-05
          29   5         1.2634E-03 -1.0320E-04 -4.2167E-05  7.2274E-05 -9.3292E-05  2.6784E-05
          29   6         1.2390E-03 -9.0665E-05 -3.0345E-05  5.4951E-05 -1.2976E-04  5.7525E-05
          29   7         1.2088E-03 -6.0511E-05 -3.0222E-05  2.9900E-05 -8.9037E-05  2.6074E-05
          29   8         1.1728E-03 -4.2184E-05 -1.2604E-05  1.7380E-05 -1.2708E-04  5.6815E-05
          30   1         1.2188E-03 -3.9302E-05 -5.4077E-05 -2.7158E-05 -4.4511E-05  8.0648E-05
          30   2         1.2388E-03 -3.9402E-05 -7.4008E-05 -1.9318E-05 -2.1921E-05  5.9741E-05
          30   3         1.1694E-03 -2.5041E-05 -1.8910E-05  1.9086E-06 -3.9661E-05  6.0818E-05
          30   4         1.1998E-03 -3.0360E-05 -4.4058E-05  1.1271E-05 -9.5546E-06  3.9911E-05
          30   5         1.2146E-03 -3.5692E-05 -5.3457E-05 -7.0270E-06 -1.2911E-04  8.0356E-05
          30   6         1.2321E-03 -3.8298E-05 -6.8376E-05  8.1288E-07 -9.0862E-05  6.0972E-05
          30   7         1.1646E-03 -2.0416E-05 -1.8797E-05  3.7694E-05 -1.2426E-04  6.8042E-05
          30   8         1.1926E-03 -2.8240E-05 -3.8935E-05  4.7057E-05 -7.8496E-05  4.8658E-05
          31   1         1.2173E-03 -3.6096E-05 -7.8044E-05 -6.2559E-05 -1.0320E-06  5.9463E-06
          31   2         1.1634E-03 -1.5947E-05 -4.4273E-05 -7.2876E-05  3.3449E-05  2.9963E-06
          31   3         1.1832E-03 -2.0516E-05 -5.9515E-05 -2.3989E-05  1.6036E-05  1.9568E-05
          31   4         1.1485E-03 -9.9967E-06 -3.5373E-05 -3.2658E-05  5.5845E-05  1.6618E-05
          31   5         1.2151E-03 -4.8663E-05 -6.3226E-05 -1.3663E-04 -5.3670E-05  1.3410E-05
          31   6         1.1594E-03 -3.0290E-05 -2.5903E-05 -1.4694E-04  9.6984E-06  1.2108E-05
          31   7         1.1804E-03 -3.1985E-05 -4.5246E-05 -6.9170E-05 -3.6602E-05  3.2360E-05
          31   8         1.1440E-03 -2.3241E-05 -1.7552E-05 -7.7839E-05  3.2095E-05  3.1058E-05
          32   1         1.1321E-03 -5.7607E-06 -3.4925E-05 -2.0181E-05  5.0475E-05 -4.1525E-05
          32   2         1.1231E-03 -1.0920E-05 -2.0738E-05  3.8141E-06  6.2510E-05 -6.9785E-05
          32   3         1.1312E-03 -1.9432E-05 -2.0337E-05 -5.9144E-06  7.4522E-05 -2.2179E-05
          32   4         1.1180E-03 -2.2471E-05 -4.0300E-06  1.2196E-05  8.5739E-05 -5.0439E-05
          32   5         1.1161E-03  2.2202E-06 -2.6892E-05 -2.4049E-05  3.4970E-05 -3.2009E-05
          32   6         1.1074E-03 -2.6664E-06 -1.3251E-05 -5.4189E-08  4.0644E-05 -6.6153E-05
          32   7         1.1172E-03 -1.5374E-05 -1.0342E-05 -1.6143E-05  5.9017E-05 -1.3481E-05
          32   8         1.1042E-03 -1.8141E-05  5.4192E-06  1.9676E-06  6.3873E-05 -4.7625E-05
          33   1         1.1996E-03  1.2576E-04  1.5229E-05  8.6569E-05  5.4231E-05 -7.9328E-05
          33   2         1.2918E-03  7.5493E-05 -2.6653E-05  7.4651E-05  1.9578E-05 -5.3570E-05
          33   3         1.1711E-03  1.5290E-04  1.6604E-05  4.4676E-05  7.2787E-05 -7.0941E-05
          33   4         1.2529E-03  1.0781E-04 -2.0098E-05  2.7938E-05  2.6184E-05 -4.5183E-05
          33   5         1.1974E-03  1.1163E-04  3.1572E-05  2.2899E-04  2.4349E-05 -7.9944E-05
          33   6         1.2936E-03  6.5346E-05 -1.8277E-05  2.1707E-04 -2.5846E-05 -5.9006E-05
          33   7         1.1705E-03  1.3555E-04  3.4553E-05  1.7155E-04  4.2904E-05 -8.3507E-05
          33   8         1.2563E-03  9.4446E-05 -1.0115E-05  1.5482E-04 -1.9241E-05 -6.2569E-05
          34   1         1.3258E-03  2.0890E-05 -2.4858E-05  3.5328E-05  1.2078E-05 -3.5015E-05
          34   2         1.2911E-03  4.4181E-05 -1.3477E-05  3.5243E-05  2.6240E-05 -5.9486E-05
          34   3         1.2995E-03  2.1784E-05  5.0734E-07  3.7233E-05  1.0106E-05 -4.6925E-05
          34   4         1.2639E-03  4.5539E-05  1.2353E-05  5.4198E-05  1.2784E-05 -7.1396E-05
          34   5         1.3265E-03  2.1490E-05 -2.6144E-05 -2.2633E-05 -3.9545E-05 -3.1300E-05
          34   6         1.2956E-03  4.8609E-05 -2.2419E-05 -2.2719E-05 -2.6778E-05 -3.8721E-05
          34   7         1.2945E-03  3.3751E-05 -6.4624E-06 -2.2123E-05 -4.1517E-05 -5.4694E-05
          34   8         1.2628E-03  6.1334E-05 -2.2733E-06 -5.1577E-06 -4.0234E-05 -6.2115E-05
          35   1         1.2019E-03  5.1689E-05  6.8058E-05 -7.9964E-05 -2.3692E-04  1.1396E-05
          35   2         1.1316E-03  9.5749E-05  9.4379E-05 -1.0917E-04 -1.4917E-04  4.4917E-05
          35   3         1.2748E-03  3.2013E-05  1.4860E-05 -4.8078E-06 -2.4795E-04 -6.3425E-06
          35   4         1.2195E-03  6.8555E-05  3.3664E-05 -7.5334E-06 -1.4890E-04  2.7178E-05
          35   5         1.2154E-03  3.5894E-05  7.0440E-05 -1.9441E-04 -1.1085E-04  5.9556E-07
          35   6         1.1412E-03  7.6186E-05  1.0430E-04 -2.2362E-04 -5.4599E-07  6.0600E-05
          35   7         1.2794E-03  3.3873E-05  8.4148E-06 -9.6695E-05 -1.2188E-04 -5.8402E-06
          35   8         1.2203E-03  6.6647E-05  3.4753E-05 -9.9421E-05 -2.7460E-07  5.4164E-05
          36   1         1.0630E-03 -1.8959E-05  5.2458E-05 -3.7810E-05 -7.8502E-05  7.6551E-05
          36   2         1.0723E-03 -1.3791E-05  3.7960E-05 -1.3222E-05  2.6819E-05  7.1795E-05
          36   3         1.1620E-03 -7.0831E-05  5.3419E-06  6.8408E-05 -8.0803E-05  5.6884E-05
          36   4         1.1517E-03 -5.5849E-05  6.5715E-07  6.9151E-05  6.1906E-06  5.2128E-05
          36   5         1.0555E-03 -1.8005E-06  4.2729E-05 -3.3649E-05  6.7603E-05  1.0716E-04
          36   6         1.0710E-03  9.4774E-06  1.6012E-05 -9.0608E-06  1.4348E-04  7.8556E-05
          36   7         1.1625E-03 -6.9569E-05  3.5607E-06  4.3128E-05  6.5303E-05  6.9161E-05
          36   8         1.1583E-03 -4.8477E-05 -1.3343E-05  4.3871E-05  1.2285E-04  4.0561E-05
          37   1         1.1064E-03 -2.9167E-05  3.4584E-05  2.1155E-04  4.3298E-05  1.6446E-05
          37   2         1.1608E-03 -5.9393E-05  1.0430E-05  1.9484E-04 -1.7001E-05 -1.9284E-05
          37   3         1.1938E-03 -9.0724E-05  8.7568E-06  1.4926E-04  1.9421E-05  2.2517E-05
          37   4         1.2615E-03 -1.2762E-04 -2.2069E-05  1.5382E-04 -3.1425E-05 -1.3213E-05
          37   5         1.1199E-03 -3.2343E-05  2.4234E-05  2.9615E-04  1.5651E-04  3.4725E-07
          37   6         1.1711E-03 -6.5720E-05  6.3816E-06  2.7945E-04  1.1622E-04 -1.4124E-05
          37   7         1.2002E-03 -7.9729E-05 -8.6793E-06  2.5388E-04  1.3263E-04  1.5872E-05
          37   8         1.2648E-03 -1.1978E-04 -3.3203E-05  2.5844E-04  1.0180E-04  1.3999E-06
          38   1         1.2448E-03  5.2772E-05  5.1707E-05  1.6815E-04 -5.9933E-05 -2.7048E-05
          38   2         1.2666E-03  4.7352E-05  3.5337E-05  1.5652E-04 -1.1693E-04 -5.3338E-06
          38   3         1.3458E-03  1.3117E-05 -9.6624E-06  1.3411E-04 -6.0421E-05 -3.7998E-05
          38   4         1.4074E-03 -1.2196E-05 -4.5926E-05  1.1761E-04 -8.8794E-05 -1.6284E-05
          38   5         1.2488E-03  4.5179E-05  5.5260E-05  1.9536E-04  1.0246E-04 -1.3573E-05
          38   6         1.2611E-03  3.0218E-05  5.7970E-05  1.8373E-04  1.0514E-04  3.2751E-06
          38   7         1.3514E-03  2.2797E-06 -4.4875E-06  2.2100E-04  1.0197E-04  4.0982E-06
          38   8         1.4035E-03 -3.2574E-05 -2.1670E-05  2.0450E-04  1.3328E-04  2.0946E-05
          39   1         1.2964E-03  4.3338E-05  4.8270E-05 -4.5581E-05 -1.4311E-04 -2.6565E-06
          39   2         1.3048E-03  3.4668E-05  4.8537E-05 -4.1033E-05 -1.5766E-04 -1.9467E-05
          39   3         1.4636E-03 -4.8650E-05 -2.6908E-05 -5.9215E-05 -1.0797E-04  6.2800E-06
          39   4         1.4691E-03 -5.5885E-05 -2.5206E-05 -6.4416E-05 -1.3200E-04 -1.0530E-05
          39   5         1.2832E-03  3.4656E-05  7.0181E-05 -2.8510E-05  9.9228E-05  1.2436E-05
          39   6         1.2948E-03  2.9146E-05  6.4131E-05 -2.3962E-05  8.0378E-05 -1.4123E-05
          39   7         1.4536E-03 -6.3831E-05 -1.7466E-06 -4.6447E-05  1.3437E-04  1.1895E-05
          39   8         1.4623E-03 -6.7907E-05 -6.3628E-06 -5.1648E-05  1.0604E-04 -1.4664E-05
          40   1         1.2737E-03  1.2783E-06  2.4129E-05 -3.6265E-05 -1.3211E-04  1.3221E-05
          40   2         1.2475E-03  2.6934E-05  2.4601E-05 -1.9534E-05 -4.7748E-05  4.3302E-05
          40   3         1.3875E-03 -4.0604E-05 -4.7833E-05  4.4353E-05 -1.0760E-04 -1.1962E-05
          40   4         1.2691E-03  3.1186E-05 -1.2275E-06  6.6230E-05 -1.6934E-05  1.8118E-05
          40   5         1.2599E-03  4.2642E-06  3.4888E-05 -8.8049E-05  5.3698E-05  1.0101E-05
          40   6         1.2317E-03  2.7817E-05  3.9567E-05 -7.1318E-05 -3.4204E-07  4.5327E-05
          40   7         1.3720E-03 -3.4187E-05 -3.8789E-05 -1.4583E-04  7.8203E-05 -8.7737E-06
          40   8         1.2516E-03  3.5499E-05  1.2023E-05 -1.2395E-04  3.0472E-05  2.6452E-05
          41   1         1.2179E-03 -6.0634E-05 -2.6644E-05 -8.1477E-05  2.2367E-06  3.2136E-05
          41   2         1.2771E-03 -9.3342E-05 -5.3125E-05 -5.8652E-05  5.4437E-05  1.0168E-05
          41   3         1.1918E-03 -5.8537E-05 -2.5775E-06 -2.2110E-05  3.2836E-05  3.8363E-05
          41   4         1.1654E-03 -4.8463E-05  1.3723E-05 -1.3183E-05  7.8141E-05  1.6394E-05
          41   5         1.2001E-03 -5.5617E-05 -1.3852E-05  1.0421E-05 -4.7993E-05  2.1991E-05
          41   6         1.2616E-03 -8.6027E-05 -4.4931E-05  3.3246E-05 -1.2414E-04 -1.3876E-05
          41   7         1.1786E-03 -6.2785E-05  1.4846E-05 -5.8557E-05 -1.7394E-05  2.1323E-05
          41   8         1.1545E-03 -5.0413E-05  2.6550E-05 -4.9631E-05 -1.0043E-04 -1.4544E-05
          42   1         1.2591E-03 -7.4806E-06 -4.4011E-05  2.6331E-05  4.2211E-05 -5.6358E-05
          42   2         1.1678E-03  1.5368E-05  2.4435E-05  2.4196E-05 -4.3390E-05 -6.6849E-05
          42   3         1.1223E-03  5.5659E-05  2.9621E-05 -7.1919E-05  6.0097E-05 -1.0760E-05
          42   4         1.0586E-03  6.4712E-05  8.4271E-05 -6.0251E-05 -3.4506E-05 -2.1252E-05
          42   5         1.2539E-03 -1.4866E-05 -3.1376E-05 -8.7813E-05 -1.6819E-04 -7.4554E-05
          42   6         1.1656E-03  1.0984E-05  3.1070E-05 -8.9949E-05 -2.1241E-04 -7.1242E-05
          42   7         1.1125E-03  5.7476E-05  3.7655E-05 -1.4468E-04 -1.5031E-04 -3.7958E-05
          42   8         1.0518E-03  6.9530E-05  8.6304E-05 -1.3301E-04 -2.0352E-04 -3.4646E-05
          43   1         1.0858E-03 -8.0364E-05  2.9057E-05 -2.0646E-05 -7.8362E-05 -9.4149E-06
          43   2         1.0314E-03 -4.8675E-05  5.1712E-05 -1.4611E-05 -8.8306E-05  1.9722E-05
          43   3         9.8231E-04 -1.4060E-05  6.6224E-05 -2.2559E-05 -6.8256E-05 -1.8449E-05
          43   4         9.5206E-04  5.5828E-06  7.6833E-05 -1.6291E-05 -6.5860E-05  1.0688E-05
          43   5         1.0804E-03 -7.9709E-05  3.3782E-05 -1.0668E-04 -2.1900E-04 -1.0406E-05
          43   6         1.0219E-03 -5.2134E-05  6.4664E-05 -1.0064E-04 -1.9281E-04  1.8964E-05
          43   7         9.7685E-04 -1.3250E-05  7.0872E-05 -7.2454E-05 -2.0889E-04 -7.1003E-06
          43   8         9.4248E-04  2.2797E-06  8.9708E-05 -6.6185E-05 -1.7036E-04  2.2270E-05
          44   1         1.0688E-03  9.0635E-05  5.1967E-05 -1.7945E-04 -4.0082E-05 -1.5088E-05
          44   2         1.1949E-03  1.6793E-05 -2.7140E-07 -1.9707E-04  1.0161E-04 -6.3845E-05
          44   3         1.0008E-03  1.0026E-04  1.1035E-04 -4.6015E-05 -1.9663E-05  6.5150E-06
          44   4         1.0629E-03  5.8411E-05  9.0103E-05 -5.2156E-05  1.0415E-04 -4.2242E-05
          44   5         1.0678E-03  7.2082E-05  7.1453E-05  2.0473E-05 -1.6648E-04  9.2494E-06
          44   6         1.1999E-03  4.1992E-06  7.2970E-06  2.8532E-06 -1.2076E-04 -2.8029E-05
          44   7         9.9600E-04  8.9362E-05  1.2601E-04  5.7939E-05 -1.4606E-04  1.2976E-05
          44   8         1.0641E-03  5.3469E-05  9.3845E-05  5.1797E-05 -1.1821E-04 -2.4302E-05
          45   1         1.2438E-03 -1.8910E-06  1.5995E-05  2.8241E-07  1.3561E-04 -7.3169E-05
          45   2         1.1763E-03  4.4068E-05  3.7509E-05 -8.6811E-06  8.6793E-05 -4.6770E-05
          45   3         1.0763E-03  9.5078E-05  8.6565E-05 -3.0595E-05  1.3481E-04 -9.7613E-05
          45   4         1.0441E-03  1.2339E-04  9.0428E-05 -6.5011E-05  9.4744E-05 -7.1215E-05
          45   5         1.2471E-03 -7.6007E-06  1.8451E-05 -1.1315E-04 -1.0250E-04 -6.2299E-05
          45   6         1.1767E-03  3.5442E-05  4.5798E-05 -1.2211E-04 -9.8364E-05 -6.1352E-05
          45   7         1.0880E-03  7.2400E-05  9.7505E-05 -9.1074E-05 -1.0330E-04 -7.7994E-05
          45   8         1.0529E-03  9.7792E-05  1.0720E-04 -1.2549E-04 -9.0412E-05 -7.7048E-05
          46   1         1.1198E-03 -5.1815E-05  1.2529E-05  4.9271E-05  4.7710E-05  4.2841E-06
          46   2         1.1125E-03 -3.4506E-05  2.5314E-06  4.6586E-05 -1.0252E-05  1.4665E-05
          46   3         1.0298E-03 -1.6410E-06  5.2321E-05 -2.1090E-05  5.9246E-05 -2.3022E-05
          46   4         1.0881E-03 -1.7131E-05  9.5248E-06 -1.7099E-06  2.3288E-06 -1.2641E-05
          46   5         1.1168E-03 -5.7450E-05  2.1115E-05  2.4652E-05 -8.2048E-05 -7.8965E-06
          46   6         1.1092E-03 -4.0490E-05  1.1814E-05  2.1966E-05 -4.1614E-05  2.4550E-05
          46   7         1.0195E-03  7.4336E-06  5.3552E-05  5.2687E-05 -7.0512E-05 -3.4158E-05
          46   8         1.0774E-03 -8.4050E-06  1.1452E-05  7.2067E-05 -2.9033E-05 -1.7112E-06
          47   1         1.1276E-03 -4.1139E-05  7.3180E-07  2.6886E-05 -1.9707E-05  2.7557E-05
          47   2         1.1561E-03 -5.4422E-05 -1.4432E-05  2.9835E-05  1.2425E-05  3.8810E-05
          47   3         1.1271E-03 -3.5260E-05 -4.6420E-06  6.6059E-05 -9.7856E-06  2.5676E-05
          47   4         1.1559E-03 -4.8738E-05 -2.0001E-05  4.9963E-05  1.4035E-05  3.6929E-05
          47   5         1.1233E-03 -4.2480E-05  6.3628E-06  6.8616E-05 -1.4838E-05  4.2279E-05
          47   6         1.1545E-03 -5.2993E-05 -1.4342E-05  7.1565E-05  1.7879E-05  3.4486E-05
          47   7         1.1292E-03 -4.9298E-05  7.3374E-06  1.0837E-04 -4.9171E-06  3.2086E-05
          47   8         1.1608E-03 -6.0005E-05 -1.3563E-05  9.2278E-05  1.9489E-05  2.4294E-05
          48   1         1.1579E-03 -3.3931E-05 -1.6911E-05 -3.9718E-06  3.4901E-05  4.0902E-05
          48   2         1.1366E-03 -2.3170E-05 -6.3542E-06 -5.6049E-06  6.4175E-05  3.1955E-05
          48   3         1.1663E-03 -4.2628E-05 -1.6661E-05  1.2147E-05  2.8954E-05  4.0698E-05
          48   4         1.1496E-03 -3.4171E-05 -8.4076E-06  2.8087E-05  4.5893E-05  3.1751E-05
          48   5         1.1604E-03 -3.3038E-05 -2.0332E-05 -3.6050E-05  4.3099E-05  3.6650E-05
          48   6         1.1432E-03 -1.8165E-05 -1.7997E-05 -3.7683E-05  7.9282E-05  4.5277E-05
          48   7         1.1630E-03 -3.0019E-05 -2.5939E-05 -1.3022E-05  3.7151E-05  2.4113E-05
          48   8         1.1504E-03 -1.7450E-05 -2.5908E-05  2.9183E-06  6.1001E-05  3.2739E-05
          49   1         1.1216E-03 -3.6954E-05  2.3014E-06  3.9739E-06  7.7090E-05  1.6316E-05
          49   2         1.1075E-03 -4.1487E-05  2.0936E-05  1.4407E-05  8.3101E-05  2.8228E-05
          49   3         1.1313E-03 -3.5887E-05 -8.5439E-06  1.6723E-05  5.4810E-05  3.9484E-05
          49   4         1.1227E-03 -4.3141E-05  7.3700E-06  1.2063E-05  6.2229E-05  5.1396E-05
          49   5         1.1255E-03 -2.2572E-05 -1.6030E-05 -5.5951E-06  9.7714E-05  2.9135E-05
          49   6         1.1109E-03 -2.7574E-05  3.5445E-06  4.8378E-06  1.1189E-04  2.5955E-05
          49   7         1.1403E-03 -3.1567E-05 -2.1844E-05  1.5317E-05  7.5434E-05  5.3712E-05
          49   8         1.1312E-03 -3.9290E-05 -4.9911E-06  1.0657E-05  9.1016E-05  5.0531E-05
          50   1         1.1470E-03  1.2699E-04  4.2780E-05  1.4479E-06  5.7368E-05 -8.5062E-06
          50   2         1.2085E-03  8.5224E-05  2.3099E-05 -1.6597E-05 -1.8948E-05 -5.5226E-05
          50   3         1.1718E-03  9.1244E-05  5.3754E-05 -7.4761E-05  3.9537E-05  1.3578E-05
          50   4         1.2005E-03  6.5851E-05  5.0446E-05 -9.1558E-05 -2.9881E-05 -3.3141E-05
          50   5         1.1590E-03  1.2090E-04  3.6908E-05  1.0466E-04  7.1164E-05 -2.9375E-05
          50   6         1.2181E-03  7.6838E-05  2.1825E-05  8.6615E-05 -5.4268E-05 -7.4846E-05
          50   7         1.1833E-03  8.5990E-05  4.7466E-05 -2.0666E-05  5.3333E-05 -3.9298E-07
          50   8         1.2097E-03  5.8297E-05  4.8756E-05 -3.7463E-05 -6.5201E-05 -4.5864E-05
          51   1         1.2793E-03  2.5045E-05  7.3962E-05 -9.8350E-06 -9.3830E-05 -8.1815E-05
          51   2         1.2626E-03  3.2039E-05  8.3678E-05  1.0684E-05 -2.2209E-04 -6.2033E-05
          51   3         1.2613E-03  4.3945E-05  7.3080E-05 -1.4033E-04 -1.0367E-04 -7.9094E-05
          51   4         1.3105E-03  1.8009E-05  4.9866E-05 -1.2715E-04 -2.3583E-04 -5.9311E-05
          51   5         1.2758E-03  4.2003E-05  6.0564E-05 -3.3541E-05 -1.1097E-04 -1.0231E-04
          51   6         1.2604E-03  5.0299E-05  6.7679E-05 -1.3021E-05 -1.4044E-04 -8.9867E-05
          51   7         1.2602E-03  5.6010E-05  6.2129E-05 -6.5246E-05 -1.2080E-04 -1.0349E-04
          51   8         1.3107E-03  3.1375E-05  3.6313E-05 -5.2068E-05 -1.5418E-04 -9.1049E-05
          52   1         1.3061E-03  5.0983E-05 -4.9316E-05  4.3747E-05  4.0389E-05  2.1662E-05
          52   2         1.2527E-03  7.6027E-05 -2.0951E-05  5.6029E-05  1.1488E-04 -1.6308E-05
          52   3         1.2542E-03  5.7945E-05 -4.3850E-06  1.0124E-04  5.2295E-05  2.4983E-05
          52   4         1.2103E-03  7.8272E-05  1.9264E-05  1.2805E-04  1.1310E-04 -1.2987E-05
          52   5         1.2981E-03  5.5203E-05 -4.5473E-05 -3.4706E-05 -5.6436E-05  2.7321E-05
          52   6         1.2492E-03  8.4810E-05 -2.6234E-05 -2.2423E-05  3.2204E-05  3.8717E-06
          52   7         1.2413E-03  7.1845E-05 -5.3819E-06  3.6941E-05 -4.4530E-05  1.6953E-05
          52   8         1.2019E-03  9.6735E-05  9.1406E-06  6.3743E-05  3.0421E-05 -6.4962E-06
          53   1         1.2038E-03 -5.9783E-05 -4.8114E-05  9.7064E-05  1.2686E-04 -2.5646E-05
          53   2         1.2049E-03 -3.9773E-05 -6.9263E-05  8.3246E-05  8.5114E-05 -1.9171E-05
          53   3         1.1614E-03 -3.5362E-05 -3.0168E-05  6.9136E-05  1.2477E-04 -6.6805E-05
          53   4         1.1939E-03 -3.1001E-05 -6.6966E-05  3.9381E-05  9.5847E-05 -6.0330E-05
          53   5         1.2091E-03 -6.8296E-05 -4.4906E-05  7.8192E-05  6.6552E-05 -2.2798E-05
          53   6         1.2059E-03 -5.2562E-05 -5.7501E-05  6.4374E-05  7.1750E-05 -3.2259E-05
          53   7         1.1720E-03 -5.4500E-05 -2.1648E-05  9.7212E-05  6.4454E-05 -5.1126E-05
          53   8         1.2002E-03 -5.4415E-05 -4.9893E-05  6.7457E-05  8.2484E-05 -6.0588E-05
          54   1         1.2765E-03 -5.8560E-05 -5.1034E-05  7.6630E-05  2.4674E-05  2.6371E-06
          54   2         1.3590E-03 -9.9914E-05 -9.2159E-05  9.2492E-05 -9.8702E-05  2.9031E-05
          54   3         1.2782E-03 -4.6201E-05 -6.5069E-05 -5.9529E-05  3.7121E-05  2.8662E-06
          54   4         1.3824E-03 -9.8384E-05 -1.1702E-04 -3.4035E-05 -9.4402E-05  2.9260E-05
          54   5         1.2671E-03 -5.2135E-05 -4.8022E-05  2.0046E-04  4.0385E-05 -4.3991E-06
          54   6         1.3523E-03 -9.0774E-05 -9.4579E-05  2.1633E-04 -5.0506E-05  3.1627E-05
          54   7         1.2656E-03 -3.3354E-05 -6.5268E-05  9.6790E-05  5.2833E-05 -1.2317E-05
          54   8         1.3724E-03 -8.2821E-05 -1.2265E-04  1.2228E-04 -4.6205E-05  2.3709E-05
          55   1         1.4478E-03  4.3826E-05 -5.9884E-05  1.3114E-04 -1.2682E-04  1.9970E-05
          55   2         1.4835E-03  2.9941E-06 -5.4807E-05  1.1645E-04 -8.0273E-05 -6.1408E-06
          55   3         1.4751E-03  1.7106E-05 -6.0494E-05  1.5706E-04 -1.3239E-04  6.5879E-05
          55   4         1.4523E-03  5.5516E-06 -2.6139E-05  1.5218E-04 -1.0464E-04  3.9769E-05
          55   5         1.4545E-03  3.5886E-05 -5.8696E-05  2.0773E-04 -9.8884E-05  5.4282E-05
          55   6         1.4965E-03  1.3218E-06 -6.6152E-05  1.9304E-04 -1.4017E-04  3.7980E-05
          55   7         1.4786E-03  1.5706E-05 -6.2575E-05  1.4581E-04 -1.0445E-04  8.1390E-05
          55   8         1.4620E-03  1.0418E-05 -4.0754E-05  1.4093E-04 -1.6453E-04  6.5088E-05
          56   1         1.5015E-03 -6.2223E-05 -4.6297E-05 -2.6050E-05 -2.9757E-05 -9.4138E-06
          56   2         1.4944E-03 -5.2657E-05 -4.8737E-05 -3.8188E-05  6.1704E-05 -1.0958E-05
          56   3         1.4221E-03 -2.3277E-05 -5.8064E-06  7.8196E-05 -5.1063E-05 -2.1420E-05
          56   4         1.3642E-03  1.1682E-05  1.7146E-05  5.6851E-05  6.7554E-05 -2.2965E-05
          56   5         1.5127E-03 -6.3213E-05 -5.6454E-05 -4.2740E-05 -1.4968E-04  1.1538E-05
          56   6         1.4965E-03 -6.2700E-05 -4.0791E-05 -5.4879E-05 -1.3440E-04  7.8757E-07
          56   7         1.4363E-03 -3.0405E-05 -1.2895E-05 -1.4675E-05 -1.7099E-04  2.6688E-05
          56   8         1.3694E-03 -4.4978E-06  2.8161E-05 -3.6020E-05 -1.2855E-04  1.5937E-05
          57   1         1.4119E-03 -2.5649E-06 -5.1237E-05  4.6788E-05  6.8499E-05 -7.4086E-06
          57   2         1.2783E-03  5.0581E-05  2.9219E-05  6.9949E-05 -4.3993E-06  1.5821E-05
          57   3         1.2909E-03  6.9553E-05 -2.3479E-06 -2.7179E-05  8.0121E-05  1.9901E-05
          57   4         1.2558E-03  7.3436E-05  2.8844E-05 -5.6535E-06 -4.1627E-06  4.3130E-05
          57   5         1.4003E-03  9.0018E-06 -5.1209E-05 -1.3996E-04 -1.0140E-04  1.0462E-06
          57   6         1.2705E-03  6.5943E-05  2.1656E-05 -1.1680E-04 -2.6504E-05  2.2639E-05
          57   7         1.2798E-03  8.0029E-05 -1.7747E-06 -6.6136E-05 -8.9774E-05  1.6970E-05
          57   8         1.2485E-03  8.7707E-05  2.1827E-05 -4.4611E-05 -2.6268E-05  3.8563E-05
          58   1         1.1489E-03 -9.6709E-05  1.4819E-05 -4.8567E-06 -4.0486E-05  5.0706E-05
          58   2         1.0857E-03 -7.0310E-05  5.1647E-05 -4.6282E-06 -6.6177E-05  6.1058E-05
          58   3         1.1626E-03 -9.8404E-05  2.7718E-06 -1.7087E-05 -4.1956E-05  6.1136E-05
          58   4         1.0881E-03 -6.6358E-05  4.5247E-05 -2.6724E-05 -6.0925E-05  7.1487E-05
          58   5         1.1493E-03 -9.6066E-05  1.3762E-05 -9.4483E-05 -1.4697E-05  3.2939E-05
          58   6         1.0838E-03 -7.1908E-05  5.5072E-05 -9.4254E-05 -5.7330E-05  3.3425E-05
          58   7         1.1663E-03 -1.0434E-04  5.0041E-06 -1.2366E-04 -1.6167E-05  5.0091E-05
          58   8         1.0896E-03 -7.4533E-05  5.1961E-05 -1.3329E-04 -5.2077E-05  5.0577E-05
          59   1         1.0151E-03  8.1321E-06  3.3652E-05 -1.1459E-04 -8.0726E-05  4.8961E-05
          59   2         9.8418E-04  2.6202E-05  4.6457E-05 -9.6181E-05 -9.4781E-05  2.3610E-05
          59   3         1.0310E-03 -1.2538E-05  3.8333E-05 -1.3290E-04 -6.7625E-05  4.3695E-05
          59   4         1.0159E-03 -2.3559E-06  4.3249E-05 -1.0990E-04 -6.6961E-05  1.8344E-05
          59   5         1.0046E-03  1.6035E-05  3.6251E-05 -1.6353E-04 -6.9417E-05  2.5332E-05
          59   6         9.6877E-04  2.9199E-05  5.8868E-05 -1.4513E-04 -5.9807E-05  4.5833E-06
          59   7         1.0190E-03 -1.5668E-06  3.9398E-05 -1.5818E-04 -5.6317E-05  3.4786E-05
          59   8         9.9900E-04  3.7087E-06  5.4127E-05 -1.3518E-04 -3.1988E-05  1.4037E-05
          60   1         9.5568E-04  3.3125E-06  4.5628E-05 -2.7663E-05 -9.9022E-05 -1.8130E-06
          60   2         9.3731E-04  8.1441E-06  5.9171E-05 -2.4358E-05 -9.6554E-05  5.7223E-06
          60   3         9.9123E-04 -1.0696E-05  2.4084E-05 -3.9694E-05 -7.4370E-05  6.8974E-06
          60   4         9.9738E-04 -1.8124E-05  2.5367E-05 -4.4720E-05 -9.5276E-05  1.4433E-05
          60   5         9.4636E-04 -2.7017E-06  6.0961E-05 -5.0868E-05 -4.1924E-05 -8.7312E-06
          60   6         9.3578E-04  9.9213E-06  5.8921E-05 -4.7564E-05 -2.6776E-06 -9.5268E-06
          60   7         9.8469E-04 -2.2265E-05  4.2194E-05 -2.6121E-05 -1.7273E-05 -2.3395E-05
          60   8         9.9863E-04 -2.1901E-05  2.7894E-05 -3.1147E-05 -1.4002E-06 -2.4190E-05
          61   1         9.3677E-04  2.7200E-05  4.9428E-05  1.3721E-05 -8.2206E-05  7.9319E-06
          61   2         9.7068E-04  1.6443E-05  2.6271E-05  1.6399E-05 -4.5475E-05 -1.1315E-05
          61   3         9.9864E-04 -1.3358E-05  2.8116E-05  4.3490E-05 -9.1871E-05 -4.4676E-06
          61   4         9.8856E-04 -2.1156E-06  2.6959E-05  5.8784E-05 -6.1664E-05 -2.3714E-05
          61   5         9.3910E-04  3.2207E-05  4.2091E-05  5.8392E-05  9.7523E-07 -2.0048E-05
          61   6         9.7519E-04  2.3625E-05  1.4586E-05  6.1069E-05 -2.8292E-05 -2.6678E-05
          61   7         9.9676E-04  6.0343E-08  1.6574E-05  2.2163E-05 -8.6905E-06 -3.8971E-05
          61   8         9.8885E-04  1.3477E-05  1.1068E-05  3.7457E-05 -4.4481E-05 -4.5601E-05
          62   1         9.5426E-04  6.1058E-05  4.9763E-06 -2.8628E-05 -1.7014E-05 -8.6400E-05
          62   2         9.2682E-04  7.2175E-05  2.1298E-05 -6.8749E-05  2.4012E-05 -1.1493E-04
          62   3         9.6081E-04  4.3518E-05  1.5963E-05  7.6247E-06 -3.5861E-05 -8.1195E-05
          62   4         9.3800E-04  5.2322E-05  2.9972E-05 -2.2631E-05  4.4261E-06 -1.0972E-04
          62   5         9.7392E-04  4.0593E-05  5.7853E-06 -6.7184E-05 -2.1447E-05 -7.4877E-05
          62   6         9.4672E-04  5.1957E-05  2.1615E-05 -1.0731E-04  2.6519E-05 -9.3539E-05
          62   7         9.7718E-04  2.9630E-05  1.3484E-05 -2.3992E-05 -4.0294E-05 -7.0411E-05
          62   8         9.5462E-04  3.8680E-05  2.7000E-05 -5.4247E-05  6.9327E-06 -8.9073E-05
          63   1         9.6590E-04  3.2082E-06  3.7279E-05 -4.1626E-05  4.0484E-05 -8.6114E-05
          63   2         1.0322E-03 -2.2612E-05 -3.2444E-06 -2.0346E-05  4.4457E-05 -5.0984E-05
          63   3         9.4580E-04  3.0823E-05  2.9763E-05 -2.7369E-05  1.9481E-05 -1.0082E-04
          63   4         9.8003E-04  2.1058E-05  5.2947E-06 -2.2966E-05  2.0326E-05 -6.5687E-05
          63   5         9.6581E-04  2.4395E-05  1.6184E-05  5.0538E-05  2.7901E-05 -7.5049E-05
          63   6         1.0332E-03 -3.8180E-07 -2.6425E-05  7.1817E-05 -1.6291E-05 -5.6795E-05
          63   7         9.5133E-04  4.0759E-05  1.4294E-05  1.6629E-05  6.8984E-06 -9.2882E-05
          63   8         9.8661E-04  3.2037E-05 -1.2260E-05  2.1032E-05 -4.0422E-05 -7.4628E-05
          64   1         1.0927E-03 -3.6875E-05 -5.7252E-06  7.3036E-05  4.0009E-05  6.7041E-06
          64   2         1.1313E-03 -4.9179E-05 -3.2069E-05  5.3804E-05  2.3885E-05  2.0042E-05
          64   3         1.0416E-03 -4.6643E-06  1.3147E-05  5.2926E-05  1.7687E-05 -7.3356E-06
          64   4         1.0956E-03 -2.4638E-05 -2.0866E-05  4.4171E-05  9.6343E-06  6.0023E-06
          64   5         1.1065E-03 -4.2255E-05 -1.4196E-05  1.2399E-04 -2.9947E-05 -6.3994E-06
          64   6         1.1425E-03 -5.7250E-05 -3.5158E-05  1.0476E-04 -2.3062E-05  1.7416E-05
          64   7         1.0519E-03 -3.0601E-06  1.1843E-06  1.2689E-04 -5.2269E-05 -1.2367E-05
          64   8         1.1032E-03 -2.5724E-05 -2.7448E-05  1.1813E-04 -3.7312E-05  1.1448E-05
          65   1         1.1596E-03 -4.4770E-05 -2.3971E-05  1.9644E-05  1.5911E-05  3.1724E-05
          65   2         1.1514E-03 -3.8425E-05 -2.2159E-05  3.8557E-05  1.0252E-05  3.1128E-05
          65   3         1.1395E-03 -3.5039E-05 -1.3643E-05  2.4009E-05  9.2974E-06  2.7192E-05
          65   4         1.1462E-03 -3.6106E-05 -1.9243E-05  3.3470E-05  1.6430E-05  2.6595E-05
          65   5         1.1555E-03 -2.9957E-05 -3.4684E-05  5.1439E-06 -1.4474E-05  2.6318E-05
          65   6         1.1430E-03 -2.7876E-05 -2.4344E-05  2.4056E-05  2.1025E-06  1.6269E-05
          65   7         1.1385E-03 -2.6527E-05 -2.1206E-05  3.1744E-05 -2.1088E-05  3.4577E-05
          65   8         1.1409E-03 -3.1858E-05 -1.8279E-05  4.1205E-05  8.2802E-06  2.4528E-05
          66   1         1.1423E-03 -1.9246E-05 -2.9366E-05  1.5622E-05  5.8299E-06  5.1929E-05
          66   2         1.1429E-03 -1.5513E-05 -3.3682E-05  8.5215E-06 -5.9266E-07  7.1339E-05
          66   3         1.1327E-03 -4.7250E-06 -3.4256E-05 -1.3304E-07  1.3538E-05  4.3882E-05
          66   4         1.1247E-03  3.3164E-06 -3.4262E-05  1.1881E-06 -1.4965E-06  6.3292E-05
          66   5         1.1421E-03 -2.6549E-05 -2.1861E-05  1.2473E-05  1.0876E-06  4.6222E-05
          66   6         1.1456E-03 -1.9946E-05 -3.1917E-05  5.3718E-06 -1.8262E-05  7.4054E-05
          66   7         1.1297E-03 -6.4135E-06 -2.9558E-05 -1.6210E-05  8.7954E-06  2.9563E-05
          66   8         1.1245E-03  4.4984E-06 -3.5305E-05 -1.4889E-05 -1.9166E-05  5.7395E-05
          67   1         1.1476E-03  2.7443E-05 -5.0353E-05 -1.0665E-04 -7.9345E-06  3.0816E-05
          67   2         1.1806E-03  1.4894E-05 -7.0800E-05 -1.2448E-04 -2.1570E-05 -2.9859E-05
          67   3         1.1592E-03 -8.6824E-06 -2.5803E-05 -1.1755E-04 -1.1165E-05  2.2918E-05
          67   4         1.2093E-03 -2.9817E-05 -5.4836E-05 -1.3946E-04 -2.2545E-05 -3.7757E-05
          67   5         1.1546E-03  1.6632E-05 -4.6562E-05 -6.1102E-05 -2.0907E-05  3.3069E-05
          67   6         1.1869E-03  3.3315E-06 -6.5506E-05 -7.8933E-05 -8.7858E-06 -3.1680E-05
          67   7         1.1676E-03 -2.2210E-05 -2.0655E-05 -4.6247E-05 -2.4138E-05  2.7427E-05
          67   8         1.2170E-03 -4.4096E-05 -4.8184E-05 -6.8153E-05 -9.7602E-06 -3.7322E-05
          68   1         1.2713E-03  9.0188E-05 -2.3842E-05 -1.7747E-04 -1.8175E-05 -6.4137E-05
          68   2         1.3216E-03  5.5543E-05 -3.9549E-05 -1.6865E-04  4.7368E-06 -5.9805E-06
          68   3         1.2492E-03  1.3031E-04 -4.1881E-05 -1.4845E-04 -1.4717E-05 -4.5199E-05
          68   4         1.2518E-03  1.1957E-04 -3.3683E-05 -1.4420E-04  1.8047E-05  1.2958E-05
          68   5         1.2672E-03  9.4915E-05 -2.4476E-05 -9.2477E-05 -2.2213E-05 -7.9737E-05
          68   6         1.3143E-03  5.6986E-05 -3.3615E-05 -8.3658E-05 -7.1017E-05 -2.6146E-05
          68   7         1.2466E-03  1.3199E-04 -4.0994E-05 -1.3517E-04 -1.8755E-05 -5.0946E-05
          68   8         1.2459E-03  1.1796E-04 -2.6227E-05 -1.3092E-04 -5.7706E-05  2.6446E-06
          69   1         1.1565E-03  4.0881E-06 -4.1985E-05  1.1110E-04  1.2456E-04 -1.2141E-05
          69   2         1.1346E-03  2.4510E-05 -4.0531E-05  1.4966E-04  1.0102E-04 -3.1760E-05
          69   3         1.1092E-03  1.7911E-05 -8.5426E-06  8.0532E-05  1.0821E-04 -3.1108E-05
          69   4         1.1180E-03  2.3008E-05 -2.2413E-05  1.3668E-04  8.9225E-05 -5.0728E-05
          69   5         1.1491E-03  3.5241E-05 -6.5734E-05  6.8803E-05  4.3853E-05 -3.0590E-05
          69   6         1.1257E-03  5.4147E-05 -6.1249E-05  1.0736E-04  6.6289E-05 -3.2619E-05
          69   7         1.0959E-03  6.0791E-05 -3.8155E-05  8.4208E-05  2.7507E-05 -4.5011E-05
          69   8         1.1032E-03  6.4372E-05 -4.8994E-05  1.4035E-04  5.4490E-05 -4.7040E-05
          70   1         1.1509E-03 -2.0689E-05 -2.2659E-05  5.0374E-05  8.3709E-05 -7.6121E-05
          70   2         1.1773E-03 -5.4271E-05 -1.5452E-05  1.6635E-05  5.9942E-05 -7.7433E-05
          70   3         1.1492E-03 -2.0493E-05 -2.1151E-05  2.7045E-05  7.4233E-05 -3.5332E-05
          70   4         1.2024E-03 -6.7459E-05 -2.7328E-05 -1.6418E-06  5.2266E-05 -3.6644E-05
          70   5         1.1654E-03 -4.0023E-05 -1.7730E-05  1.1033E-04  8.0498E-05 -5.0284E-05
          70   6         1.1911E-03 -7.4205E-05 -9.3229E-06  7.6592E-05  9.6882E-05 -4.6544E-05
          70   7         1.1620E-03 -3.6459E-05 -1.7906E-05  1.2715E-04  7.1022E-05 -7.6945E-06
          70   8         1.2145E-03 -8.4025E-05 -2.2883E-05  9.8466E-05  8.9207E-05 -3.9545E-06
          71   1         1.3058E-03 -1.7661E-06  5.9039E-05 -1.2196E-04  3.2567E-05 -3.0658E-06
          71   2         1.3942E-03 -5.0200E-05  1.9089E-05 -9.5928E-05 -1.8457E-05  5.2552E-05
          71   3         1.3008E-03  2.8564E-05  3.3751E-05 -1.5636E-04  3.4232E-05  5.4176E-06
          71   4         1.3320E-03  8.7191E-06  2.2390E-05 -1.3850E-04  6.9297E-06  6.1035E-05
          71   5         1.2966E-03  1.5032E-05  5.1472E-05  1.4859E-05  5.2811E-05  1.4410E-05
          71   6         1.3770E-03 -4.1308E-05  2.7336E-05  4.0889E-05 -8.3978E-05  6.1861E-05
          71   7         1.2942E-03  3.9918E-05  2.8907E-05 -1.0531E-04  5.4477E-05  4.6615E-05
          71   8         1.3175E-03  1.2166E-05  3.3360E-05 -8.7444E-05 -5.8591E-05  9.4065E-05
          72   1         1.3912E-03 -5.3413E-05 -1.6378E-05  1.5679E-04 -4.7368E-05  1.0132E-04
          72   2         1.3553E-03 -2.1261E-05 -1.2641E-05  1.5494E-04 -7.5330E-05  7.0413E-05
          72   3         1.3205E-03 -3.3501E-05  3.4445E-05  1.3015E-04 -1.1076E-05  7.2911E-05
          72   4         1.2397E-03  2.1094E-05  6.0626E-05  1.2677E-04 -3.2966E-05  4.1999E-05
          72   5         1.3797E-03 -6.6744E-05  8.4335E-06  8.8753E-05 -1.6893E-04  1.1067E-04
          72   6         1.3418E-03 -3.6617E-05  1.6219E-05  8.6901E-05 -2.6422E-04  7.8228E-05
          72   7         1.3095E-03 -4.7853E-05  5.9767E-05 -5.2204E-06 -1.3263E-04  8.8328E-05
          72   8         1.2267E-03  4.7178E-06  8.9996E-05 -8.6037E-06 -2.2186E-04  5.5885E-05
          73   1         1.2646E-03 -7.3994E-05 -4.9079E-05  1.2516E-04 -6.7688E-05 -1.2895E-06
          73   2         1.1974E-03 -4.8428E-05 -7.4947E-06  1.0102E-04 -1.8848E-05 -1.3274E-05
          73   3         1.1449E-03 -2.0151E-05  1.6748E-05  1.4920E-04 -3.5672E-05  1.4729E-05
          73   4         1.1288E-03 -2.0121E-05  3.2797E-05  1.2665E-04 -2.1175E-05  2.7444E-06
          73   5         1.2619E-03 -1.0076E-04 -1.9689E-05  3.2439E-05 -2.5318E-04  3.1139E-05
          73   6         1.2062E-03 -6.3744E-05 -9.9990E-07  8.3027E-06 -1.2774E-04  2.0735E-05
          73   7         1.1417E-03 -4.5861E-05  4.5611E-05  1.3309E-04 -2.2117E-04  1.2816E-05
          73   8         1.1371E-03 -3.4383E-05  3.8765E-05  1.1054E-04 -1.3006E-04  2.4110E-06
          74   1         1.2077E-03  7.6020E-05  1.0016E-05 -4.9364E-05  4.3941E-07  1.7415E-05
          74   2         1.2558E-03  6.8869E-05 -3.0956E-05 -3.1933E-05  4.2955E-06  2.8343E-05
          74   3         1.1769E-03  9.6877E-05  1.9945E-05 -3.6010E-05 -1.0681E-05 -1.6407E-05
          74   4         1.2982E-03  5.3177E-05 -5.7576E-05 -2.8127E-05  3.4894E-06 -5.4790E-06
          74   5         1.2056E-03  9.1347E-05 -3.2086E-06  5.9081E-06 -4.0277E-05  1.2882E-05
          74   6         1.2503E-03  8.0759E-05 -3.7304E-05  2.3339E-05  7.3228E-05  1.4261E-05
          74   7         1.1780E-03  1.0584E-04  9.9037E-06  1.2891E-04 -5.1398E-05 -1.0626E-05
          74   8         1.2958E-03  5.8701E-05 -6.0741E-05  1.3679E-04  7.2422E-05 -9.2463E-06
          75   1         1.2458E-03 -6.0064E-05 -4.0814E-05 -3.7781E-05 -9.3956E-06  4.6341E-05
          75   2         1.1829E-03 -2.3731E-05 -1.4221E-05 -4.8455E-05 -5.0657E-05  6.1771E-05
          75   3         1.3224E-03 -9.0636E-05 -8.6816E-05 -8.2089E-05 -4.9357E-06  3.6601E-05
          75   4         1.2841E-03 -6.6605E-05 -7.2525E-05 -8.5728E-05 -4.2124E-05  5.2031E-05
          75   5         1.2479E-03 -6.8666E-05 -3.4283E-05 -1.3704E-04  1.1318E-04  3.3414E-05
          75   6         1.1836E-03 -3.3690E-05 -4.9746E-06 -1.4771E-04  1.0883E-04  5.5879E-05
          75   7         1.3221E-03 -9.4548E-05 -8.2630E-05 -1.4444E-04  1.1764E-04  2.7747E-05
          75   8         1.2825E-03 -7.1875E-05 -6.5624E-05 -1.4808E-04  1.1736E-04  5.0212E-05
          76   1         1.1107E-03 -8.2425E-06 -3.5467E-05 -1.4605E-04 -6.8878E-05  4.6061E-05
          76   2         1.0838E-03 -4.2692E-06 -1.2556E-05 -1.2880E-04 -7.7399E-05  3.5660E-05
          76   3         1.2200E-03 -6.8094E-05 -8.4917E-05 -1.6364E-04 -6.6026E-05  6.4999E-05
          76   4         1.1672E-03 -5.1153E-05 -4.9038E-05 -1.6672E-04 -9.4139E-05  5.4598E-05
          76   5         1.1040E-03  2.3068E-06 -3.9316E-05 -1.7690E-04  8.9874E-05  4.3495E-05
          76   6         1.0836E-03  1.2811E-05 -2.9466E-05 -1.5965E-04  4.2449E-05  1.2764E-05
          76   7         1.2200E-03 -7.1098E-05 -8.1989E-05 -2.3340E-04  9.2726E-05  4.2841E-05
          76   8         1.1738E-03 -4.7626E-05 -5.9172E-05 -2.3648E-04  2.5709E-05  1.2110E-05
          77   1         1.0636E-03  3.4678E-06 -2.3722E-05 -3.6905E-05 -7.2287E-05  1.3907E-05
          77   2         1.0764E-03  3.3320E-06 -3.6299E-05 -3.5771E-05 -4.9801E-05 -4.2590E-06
          77   3         1.1307E-03 -3.9117E-05 -4.8140E-05 -1.7255E-05 -8.9602E-05  1.4653E-06
          77   4         1.1175E-03 -2.6333E-05 -4.7798E-05  9.0429E-06 -4.9092E-05 -1.6701E-05
          77   5         1.0690E-03  9.9957E-06 -3.5643E-05 -2.4056E-05  1.9134E-05 -3.2013E-05
          77   6         1.0757E-03  3.8522E-06 -3.6205E-05 -2.2922E-05  2.8629E-06 -2.5016E-05
          77   7         1.1277E-03 -1.5813E-05 -6.8449E-05 -4.3164E-05  1.8198E-06 -2.6432E-05
          77   8         1.1085E-03 -9.0373E-06 -5.6092E-05 -1.6866E-05  3.5717E-06 -1.9434E-05
          78   1         1.0681E-03  2.1222E-06 -4.2335E-05  7.6073E-05 -2.6429E-05 -2.8637E-05
          78   2         1.0459E-03  1.5048E-05 -3.3098E-05  9.0799E-05  1.4938E-05 -2.4791E-05
          78   3         1.0994E-03 -1.1604E-05 -5.9907E-05  1.3532E-04 -1.2779E-05 -3.2327E-05
          78   4         1.0962E-03 -8.1442E-06 -6.0137E-05  1.3588E-04  4.5920E-05 -2.8480E-05
          78   5         1.0586E-03  7.3895E-06 -3.8143E-05  4.0985E-05  2.2443E-05 -3.6904E-05
          78   6         1.0307E-03  1.4538E-05 -1.7352E-05  5.5711E-05  9.2209E-05 -4.7227E-05
          78   7         1.0947E-03 -1.5783E-05 -5.0993E-05  1.2864E-04  3.6093E-05 -2.3262E-05
          78   8         1.0856E-03 -1.8101E-05 -3.9668E-05  1.2919E-04  1.2319E-04 -3.3584E-05
          79   1         1.0123E-03  5.2331E-05 -3.4601E-05  2.7365E-05  4.1540E-05 -4.9268E-05
          79   2         9.8299E-04  5.4652E-05 -7.5942E-06  5.3098E-06  7.2850E-05 -5.6701E-05
          79   3         1.0715E-03  1.9012E-05 -6.0488E-05  4.5043E-05  7.5402E-05 -2.4583E-05
          79   4         1.0375E-03  2.3676E-05 -3.1138E-05  3.5526E-05  9.7249E-05 -3.2015E-05
          79   5         1.0084E-03  2.6340E-05 -4.6741E-06 -4.2842E-06  1.2663E-04 -5.5551E-05
          79   6         9.8220E-04  3.1816E-05  1.6024E-05 -2.6339E-05  1.5091E-04 -5.0445E-05
          79   7         1.0634E-03  1.3796E-06 -3.4740E-05  6.3648E-06  1.6050E-04 -4.0329E-05
          79   8         1.0325E-03  9.1984E-06 -1.1700E-05 -3.1518E-06  1.7531E-04 -3.5223E-05
          80   1         9.7469E-04  5.3131E-05  8.6918E-06 -1.9047E-05  8.4706E-05 -6.2563E-05
          80   2         9.7510E-04  4.1507E-05  1.9908E-05 -2.3334E-05  8.5785E-05 -6.7116E-05
          80   3         1.0170E-03  2.9711E-05 -1.0175E-05 -1.0566E-05  1.0678E-04 -3.9723E-05
          80   4         9.9127E-04  3.1144E-05  1.4099E-05 -2.1717E-05  1.1097E-04 -4.4276E-05
          80   5         9.6877E-04  4.2915E-05  2.4837E-05 -7.0159E-06  1.4586E-04 -6.0649E-05
          80   6         9.6814E-04  3.0254E-05  3.8128E-05 -1.1303E-05  1.0777E-04 -7.2067E-05
          80   7         1.0133E-03  1.4919E-05  8.2582E-06 -3.7706E-05  1.6793E-04 -3.4697E-05
          80   8         9.8660E-04  1.5315E-05  3.4606E-05 -4.8858E-05  1.3295E-04 -4.6115E-05
          81   1         1.0173E-03  5.0976E-06  3.3931E-05  3.6014E-05  7.9279E-05 -3.7368E-05
          81   2         1.0714E-03 -1.5556E-05  4.1784E-07  3.2484E-05  6.0425E-05 -2.7458E-05
          81   3         1.0140E-03  1.1677E-05  3.0600E-05  9.9204E-06  1.0305E-04 -5.0228E-05
          81   4         1.0544E-03 -2.0899E-06  3.9740E-06  1.0188E-05  7.7213E-05 -4.0318E-05
          81   5         1.0105E-03 -5.1787E-06  5.0954E-05  1.1083E-04  7.9361E-05 -3.6785E-05
          81   6         1.0670E-03 -2.3505E-05  1.2786E-05  1.0730E-04  3.9847E-05 -2.3078E-05
          81   7         1.0060E-03  3.9325E-06  4.6357E-05  6.4080E-05  1.0313E-04 -5.6627E-05
          81   8         1.0487E-03 -7.5070E-06  1.5076E-05  6.4348E-05  5.6634E-05 -4.2919E-05
          82   1         1.1119E-03 -3.6535E-05 -1.5561E-06  2.0712E-05  5.0358E-05  1.3835E-06
          82   2         1.1267E-03 -3.7839E-05 -1.5065E-05  2.6063E-05  4.1706E-05  1.4960E-05
          82   3         1.0888E-03 -1.8184E-05  3.2184E-06  7.3392E-06  6.0761E-05 -1.0822E-05
          82   4         1.1040E-03 -1.9707E-05 -1.0509E-05  1.0916E-05  4.1648E-05  2.7544E-06
          82   5         1.1067E-03 -3.6435E-05  3.5951E-06  3.6826E-05  2.2458E-05  8.5224E-06
          82   6         1.1250E-03 -3.4251E-05 -1.6887E-05  4.2178E-05  1.4463E-05  2.0324E-05
          82   7         1.0841E-03 -1.9268E-05  8.9614E-06  2.4111E-05  3.2861E-05 -1.4144E-05
          82   8         1.1029E-03 -1.7303E-05 -1.1740E-05  2.7688E-05  1.4406E-05 -2.3423E-06
          83   1         1.1284E-03  1.5733E-06 -2.8116E-05 -3.5238E-05  7.5555E-06  2.6392E-05
          83   2         1.1314E-03  7.5890E-06 -3.7088E-05 -3.7150E-05 -7.7094E-05  2.1930E-05
          83   3         1.1237E-03  1.6832E-06 -2.3544E-05 -1.1539E-04  1.5929E-06  1.1404E-05
          83   4         1.1590E-03 -8.4648E-06 -4.8680E-05 -1.3456E-04 -8.8728E-05  6.9425E-06
          83   5         1.1310E-03  2.2862E-06 -3.1454E-05 -3.8297E-05 -1.6978E-06  6.8335E-06
          83   6         1.1359E-03  1.0193E-05 -4.4207E-05 -4.0209E-05 -3.7856E-05 -1.4883E-05
          83   7         1.1321E-03 -9.1070E-06 -2.1131E-05 -6.9960E-05 -7.6604E-06 -1.3826E-05
          83   8         1.1693E-03 -1.7364E-05 -5.0048E-05 -8.9127E-05 -4.9491E-05 -3.5543E-05
          84   1         1.1804E-03 -2.2349E-05 -1.7255E-05 -1.2174E-04 -1.0181E-04  6.9801E-06
          84   2         1.2292E-03 -5.2004E-05 -3.6396E-05 -1.3117E-04 -8.4689E-05  1.3986E-05
          84   3         1.2146E-03 -3.5915E-05 -3.7826E-05 -1.2229E-04 -1.1782E-04  1.7493E-05
          84   4         1.2592E-03 -6.3494E-05 -5.4892E-05 -9.3540E-05 -1.0699E-04  2.4499E-05
          84   5         1.1889E-03 -2.3295E-05 -2.4788E-05 -4.3290E-05 -4.7103E-05 -9.6099E-06
          84   6         1.2398E-03 -5.0853E-05 -4.8123E-05 -5.2715E-05 -3.6208E-05  3.5569E-05
          84   7         1.2103E-03 -1.1411E-05 -5.8084E-05 -5.0064E-05 -6.3116E-05 -5.3864E-06
          84   8         1.2571E-03 -3.6894E-05 -7.9343E-05 -2.1315E-05 -5.8510E-05  3.9793E-05
          85   1         1.2291E-03  1.2447E-04 -4.3700E-05 -8.5952E-05 -3.3706E-05  1.5048E-05
          85   2         1.1986E-03  1.3730E-04 -2.6013E-05 -9.4822E-05  8.8460E-05  7.5759E-06
          85   3         1.2422E-03  1.1421E-04 -4.6485E-05  5.5780E-05 -5.6917E-05  1.9907E-05
          85   4         1.1563E-03  1.5470E-04 -1.1357E-06  1.5619E-05  6.9056E-05  1.2435E-05
          85   5         1.2398E-03  1.2629E-04 -5.6217E-05 -1.2930E-04 -1.7879E-05  4.2609E-05
          85   6         1.2081E-03  1.3785E-04 -3.5991E-05 -1.3817E-04  2.1300E-05  3.8475E-06
          85   7         1.2633E-03  9.5176E-05 -4.8573E-05 -7.0550E-05 -4.1090E-05  5.1276E-05
          85   8         1.1762E-03  1.3440E-04 -6.8446E-07 -1.1071E-04  1.8967E-06  1.2515E-05
          86   1         1.1916E-03  5.8295E-05  7.7331E-05  7.2534E-05 -4.2890E-05 -6.1368E-05
          86   2         1.2089E-03  4.0688E-05  7.7640E-05  1.2295E-04 -6.2336E-05 -4.6470E-05
          86   3         1.3138E-03  4.6346E-06  8.7717E-06  8.1249E-05 -1.1588E-05 -4.3452E-05
          86   4         1.3574E-03 -2.6088E-05 -4.0349E-06  9.8433E-05 -2.1585E-05 -2.8553E-05
          86   5         1.1644E-03  8.1475E-05  8.1392E-05  1.0744E-04  1.4789E-04 -2.5286E-05
          86   6         1.1785E-03  6.0718E-05  8.8001E-05  1.5786E-04  1.6779E-04 -4.3623E-05
          86   7         1.2977E-03  5.6566E-06  2.3912E-05  1.5550E-04  1.7919E-04  2.0798E-06
          86   8         1.3380E-03 -2.8216E-05  1.7404E-05  1.7269E-04  2.0854E-04 -1.6258E-05
          87   1         1.2541E-03  1.1571E-05  8.1924E-05  2.0937E-05 -6.1175E-05 -3.8269E-06
          87   2         1.3128E-03 -1.1029E-05  4.5845E-05 -1.5681E-07 -3.8558E-05  6.4214E-06
          87   3         1.3913E-03 -5.1931E-05  8.1739E-06  2.7579E-05 -2.3684E-05 -1.7306E-05
          87   4         1.3890E-03 -4.3997E-05  2.6288E-06  2.2177E-05 -1.9422E-05 -7.0573E-06
          87   5         1.2486E-03 -1.4989E-05  1.1395E-04  1.0221E-04  1.4983E-04 -2.9224E-06
          87   6         1.3134E-03 -3.1470E-05  6.5634E-05  8.1120E-05  8.0844E-05  2.3018E-05
          87   7         1.3806E-03 -6.8029E-05  3.4968E-05  1.7257E-05  1.8732E-04 -3.4756E-05
          87   8         1.3844E-03 -5.3977E-05  1.7187E-05  1.1855E-05  9.9980E-05 -8.8154E-06
          88   1         1.3159E-03  3.5710E-05  1.0062E-05 -1.4649E-04 -3.1596E-06  1.6790E-05
          88   2         1.3161E-03  4.6637E-05 -1.1392E-06 -1.3294E-04  7.0933E-05  1.5215E-05
          88   3         1.3534E-03  1.6140E-05 -7.9339E-06 -8.5143E-05  1.7528E-06 -5.3389E-06
          88   4         1.2985E-03  5.4672E-05  8.4705E-06 -7.5187E-05  5.5342E-05 -6.9131E-06
          88   5         1.3097E-03  4.3110E-05  8.8179E-06 -1.5715E-04  5.2402E-05  5.4698E-05
          88   6         1.3168E-03  6.0872E-05 -1.6053E-05 -1.4359E-04  4.3678E-05  4.9524E-05
          88   7         1.3485E-03  2.1140E-05 -7.9779E-06 -1.7861E-04  5.7314E-05  1.2066E-05
          88   8         1.3004E-03  6.6508E-05 -5.2430E-06 -1.6866E-04  2.8087E-05  6.8916E-06
          89   1         1.2424E-03 -6.9873E-05 -3.7211E-05  9.0178E-05  6.8918E-05  1.4285E-05
          89   2         1.1654E-03 -3.0049E-05  7.4339E-09  8.3476E-05 -1.0682E-05  2.2954E-05
          89   3         1.2299E-03 -5.9288E-05 -3.5294E-05  7.6103E-06  4.1390E-05  1.1679E-05
          89   4         1.2315E-03 -5.8759E-05 -3.7372E-05 -6.6249E-06 -5.0316E-05  2.0348E-05
          89   5         1.2539E-03 -6.5165E-05 -5.3329E-05 -2.6689E-05  5.4499E-05  2.7070E-05
          89   6         1.1809E-03 -2.1305E-05 -2.4181E-05 -3.3391E-05  9.2786E-05  2.8205E-05
          89   7         1.2439E-03 -5.9602E-05 -4.8901E-05  8.6296E-06  2.6972E-05  1.2357E-05
          89   8         1.2495E-03 -5.5038E-05 -5.9049E-05 -5.6056E-06  5.3152E-05  1.3493E-05
          90   1         1.1251E-03 -2.8788E-05 -1.0688E-06  1.4815E-04 -5.3091E-05  3.5252E-05
          90   2         1.1316E-03 -3.4733E-05 -1.6278E-06  1.2698E-04 -8.9353E-05  3.9363E-05
          90   3         1.2218E-03 -7.5093E-05 -5.1486E-05  1.2123E-04 -9.2767E-05  4.0639E-05
          90   4         1.2293E-03 -8.1514E-05 -5.2520E-05  1.0227E-04 -1.1704E-04  4.4750E-05
          90   5         1.1454E-03 -2.9675E-05 -2.0463E-05  1.6060E-04  9.4048E-05  1.6764E-05
          90   6         1.1479E-03 -3.9618E-05 -1.3029E-05  1.3943E-04  5.9210E-05  2.3087E-05
          90   7         1.2414E-03 -7.4506E-05 -7.1617E-05  1.3511E-04  5.4372E-05  3.4141E-05
          90   8         1.2448E-03 -8.4924E-05 -6.4658E-05  1.1615E-04  3.1524E-05  4.0464E-05
          91   1         1.2200E-03  1.0274E-04  3.0504E-05 -6.2992E-06 -7.7227E-05 -2.2260E-06
          91   2         1.3263E-03  3.6740E-05 -9.8292E-06 -2.5570E-07 -7.8333E-06 -3.9134E-05
          91   3         1.3099E-03  3.9346E-05  4.0207E-06  6.1517E-05 -1.0592E-04  2.3438E-05
[...]
        4888   6         1.1852E-03 -2.3301E-05  7.1058E-05 -6.6468E-05 -5.5942E-05 -8.8104E-06
        4888   7         1.1115E-03  3.1016E-05  9.0435E-05 -1.2862E-04  4.0854E-05  6.4771E-06
        4888   8         1.1526E-03 -2.0740E-06  8.2459E-05 -1.1304E-04 -4.7978E-06  1.6304E-05
        4889   1         1.2787E-03  4.3453E-06  4.3791E-05 -1.7938E-04  1.5424E-05  2.7720E-05
        4889   2         1.3294E-03 -9.8333E-06  7.2414E-06 -1.9675E-04  8.8679E-05  7.6221E-06
        4889   3         1.2221E-03  2.2554E-05  8.2097E-05 -1.1674E-04  6.2677E-05  5.3490E-06
        4889   4         1.2140E-03  3.7823E-05  7.4995E-05 -1.1505E-04  1.2196E-04 -1.4749E-05
        4889   5         1.2687E-03 -2.2982E-05  8.1081E-05 -1.1448E-04 -7.9397E-05  3.5760E-05
        4889   6         1.3241E-03 -3.2504E-05  3.5218E-05 -1.3184E-04 -9.4484E-05  3.4716E-05
        4889   7         1.2058E-03  7.9284E-06  1.1304E-04 -1.4018E-04 -3.2144E-05 -5.8072E-07
        4889   8         1.2023E-03  2.7854E-05  9.6621E-05 -1.3849E-04 -6.1201E-05 -1.6251E-06
        4890   1         1.2790E-03 -4.4429E-06 -1.2552E-05  2.5690E-05  1.0433E-04 -5.5256E-06
        4890   2         1.1632E-03  5.6233E-05  4.2574E-05  7.8053E-05  7.3836E-05  1.1104E-05
        4890   3         1.1587E-03  6.4029E-05  3.9290E-05 -1.2307E-06  1.2565E-04 -1.1075E-05
        4890   4         1.1218E-03  8.5234E-05  5.4946E-05  2.5892E-05  7.6444E-05  5.5546E-06
        4890   5         1.2544E-03  2.3359E-05 -1.5793E-05 -1.5079E-04 -6.7826E-05  2.1903E-05
        4890   6         1.1448E-03  9.0273E-05  2.6859E-05 -9.8426E-05  2.0093E-05  1.3291E-05
        4890   7         1.1425E-03  7.5004E-05  4.4463E-05 -5.9296E-05 -4.6506E-05 -2.3589E-06
        4890   8         1.1119E-03  1.0245E-04  4.7643E-05 -3.2174E-05  2.2701E-05 -1.0970E-05
        4891   1         1.0738E-03 -1.4325E-05  3.4115E-06 -8.4177E-06  7.0305E-05 -4.3726E-06
        4891   2         1.0859E-03 -4.6311E-06 -1.8344E-05 -4.1341E-05  9.1153E-05 -3.8275E-05
        4891   3         1.1003E-03 -4.4521E-05  7.1183E-06 -2.9149E-06  6.7516E-05 -3.5822E-05
        4891   4         1.1728E-03 -6.5046E-05 -4.4856E-05 -1.1251E-05  9.2333E-05 -6.9724E-05
        4891   5         1.0857E-03 -3.5344E-05  1.2527E-05 -6.0502E-06  9.3087E-05 -8.9851E-06
        4891   6         1.0965E-03 -2.6973E-05 -6.5831E-06 -3.8974E-05  2.0459E-04 -1.8300E-05
        4891   7         1.1040E-03 -4.9148E-05  8.0377E-06  9.0109E-05  9.0298E-05 -3.6466E-05
        4891   8         1.1752E-03 -7.0996E-05 -4.1291E-05  8.1773E-05  2.0577E-04 -4.5781E-05
        4892   1         1.1245E-03 -2.4738E-05 -1.1139E-05 -9.7185E-05  1.0221E-04 -2.6218E-05
        4892   2         1.1567E-03 -3.6865E-05 -3.1131E-05 -7.7187E-05  1.1156E-04  3.5000E-05
        4892   3         1.1794E-03 -2.1542E-05 -6.9163E-05 -7.4301E-05  1.0608E-04 -3.4083E-05
        4892   4         1.1500E-03 -2.9153E-06 -5.8400E-05 -9.1212E-05  1.1880E-04  2.7136E-05
        4892   5         1.1166E-03 -1.2696E-05 -1.5226E-05 -5.2940E-05  2.1506E-04 -1.9556E-05
        4892   6         1.1476E-03 -2.5949E-05 -3.2965E-05 -3.2942E-05  1.3215E-04  4.7546E-06
        4892   7         1.1837E-03 -3.4106E-05 -6.0946E-05 -1.2232E-04  2.1893E-04 -2.4041E-05
        4892   8         1.1532E-03 -1.6605E-05 -4.7931E-05 -1.3923E-04  1.3939E-04  2.6930E-07
        4893   1         1.1131E-03  3.6649E-05 -7.6706E-05  4.8070E-05  7.4887E-05  5.5412E-05
        4893   2         1.0815E-03  5.3523E-05 -6.1913E-05  1.0798E-05 -3.4643E-05  7.3129E-06
        4893   3         1.1166E-03  1.0878E-05 -5.4377E-05 -8.2603E-05  7.8359E-05  5.3330E-05
        4893   4         1.0745E-03  3.2949E-05 -3.4389E-05 -9.3663E-05 -4.4868E-05  5.2311E-06
        4893   5         1.1244E-03  1.0644E-05 -6.1967E-05 -4.7030E-07  5.6001E-05  1.5106E-05
        4893   6         1.0973E-03  3.2083E-05 -5.6306E-05 -3.7742E-05 -6.9118E-05 -6.7813E-06
        4893   7         1.1191E-03  2.3479E-06 -4.8376E-05 -1.4673E-04  5.9473E-05 -6.7278E-07
        4893   8         1.0816E-03  2.8984E-05 -3.7519E-05 -1.5779E-04 -7.9342E-05 -2.2560E-05
        4894   1         1.1001E-03  6.3355E-05 -5.4906E-05  1.7190E-05 -7.6276E-05 -6.6748E-05
        4894   2         1.1473E-03  4.6876E-05 -8.5696E-05  1.1653E-05 -8.0491E-05 -8.0465E-05
        4894   3         1.0916E-03  6.0742E-05 -4.3803E-05  1.8043E-05 -9.0719E-05 -8.1058E-05
        4894   4         1.1763E-03  2.5512E-05 -9.3342E-05  1.4480E-05 -9.2762E-05 -9.4775E-05
        4894   5         1.1067E-03  6.4478E-05 -6.2688E-05  8.0941E-05 -9.5869E-05 -6.0205E-05
        4894   6         1.1533E-03  4.7274E-05 -9.2031E-05  7.5403E-05 -4.3835E-05 -7.1947E-05
        4894   7         1.0976E-03  6.3181E-05 -5.2243E-05  1.3804E-04 -1.1031E-04 -7.2344E-05
        4894   8         1.1816E-03  2.7227E-05 -1.0034E-04  1.3448E-04 -5.6106E-05 -8.4086E-05
        4895   1         1.2010E-03 -1.9977E-05 -6.7204E-05  2.4326E-05 -6.0727E-05 -6.3874E-05
        4895   2         1.2142E-03 -2.8141E-05 -7.2193E-05  1.4548E-05 -2.5157E-06 -2.9964E-05
        4895   3         1.2192E-03 -1.2124E-05 -9.3262E-05  8.0082E-05 -7.1294E-05 -6.0699E-05
        4895   4         1.2087E-03 -8.4677E-06 -8.6430E-05  6.4393E-05 -1.0600E-05 -2.6788E-05
        4895   5         1.2078E-03 -2.2973E-05 -7.0989E-05  4.5644E-05 -1.6463E-05 -4.8740E-05
        4895   6         1.2201E-03 -3.1965E-05 -7.4323E-05  3.5866E-05  6.2845E-06 -2.0740E-05
        4895   7         1.2280E-03 -1.9061E-05 -9.5077E-05  6.5936E-05 -2.7030E-05 -4.3082E-05
        4895   8         1.2167E-03 -1.6232E-05 -8.6590E-05  5.0248E-05 -1.7996E-06 -1.5082E-05
        4896   1         1.2178E-03 -1.4828E-05 -7.4100E-05 -7.9542E-06  2.1125E-05  2.0725E-05
        4896   2         1.2109E-03 -3.9029E-06 -7.8098E-05  3.2281E-06  2.7500E-05  1.4386E-05
        4896   3         1.2292E-03 -2.3664E-05 -7.6599E-05 -1.5664E-06  2.2628E-05  5.8016E-06
        4896   4         1.2551E-03 -2.9145E-05 -9.7002E-05  1.8366E-05  5.2716E-05 -5.3655E-07
        4896   5         1.2136E-03 -7.8742E-06 -7.6825E-05 -2.5806E-05  3.4958E-05  2.3649E-05
        4896   6         1.1988E-03 -4.8534E-06 -6.5015E-05 -1.4624E-05  9.0549E-05  2.6062E-05
        4896   7         1.2220E-03 -1.0877E-05 -8.2240E-05  2.9798E-05  3.6462E-05  3.2439E-05
        4896   8         1.2400E-03 -2.4262E-05 -8.6836E-05  4.9730E-05  1.1577E-04  3.4851E-05
        4897   1         1.2333E-03 -1.2832E-05  8.0936E-05  5.6025E-05  6.8087E-05  1.0919E-04
        4897   2         1.1948E-03  2.9807E-05  7.6740E-05  3.4635E-05  5.9414E-06  7.9964E-05
        4897   3         1.2441E-03 -3.2849E-05  9.0145E-05  5.2976E-06  2.9459E-05  6.2355E-05
        4897   4         1.2292E-03 -1.9774E-06  7.4182E-05 -2.2222E-05 -1.9388E-05  3.3129E-05
        4897   5         1.2533E-03 -1.4217E-05  6.2314E-05 -2.5056E-05  6.9685E-05  1.0054E-04
        4897   6         1.2104E-03  2.3989E-05  6.6983E-05 -4.6446E-05  4.2841E-05  6.5187E-05
        4897   7         1.2661E-03 -3.8320E-05  7.3567E-05 -4.0483E-05  3.1057E-05  6.7005E-05
        4897   8         1.2468E-03 -1.1881E-05  6.6469E-05 -6.8002E-05  1.7511E-05  3.1650E-05
        4898   1         1.1830E-03 -5.7134E-05  3.8493E-05 -1.3097E-04 -4.4161E-05  6.5225E-05
        4898   2         1.2374E-03 -5.9823E-05 -1.3298E-05 -1.2459E-04 -1.1890E-04  7.5367E-05
        4898   3         1.2015E-03 -6.1324E-05  2.4162E-05 -1.8011E-04 -5.0310E-05  1.6124E-05
        4898   4         1.2251E-03 -4.8562E-05 -1.2178E-05 -1.8363E-04 -8.5943E-05  2.6265E-05
        4898   5         1.1829E-03 -5.0829E-05  3.2267E-05 -7.3797E-05 -1.1308E-05  1.8398E-05
        4898   6         1.2243E-03 -6.6554E-05  6.5450E-06 -6.7414E-05 -1.3240E-04  1.8634E-05
        4898   7         1.2047E-03 -6.1623E-05  2.1237E-05 -1.6929E-04 -1.7456E-05  8.4008E-06
        4898   8         1.2152E-03 -6.1896E-05  1.0967E-05 -1.7281E-04 -9.9444E-05  8.6371E-06
        4899   1         1.3134E-03  3.0431E-05 -1.1726E-05 -6.8412E-05 -1.2608E-04  5.8939E-06
        4899   2         1.3869E-03 -1.9464E-05 -3.5330E-05 -4.8812E-05 -7.0959E-05 -3.8570E-05
        4899   3         1.2956E-03  1.7098E-05  1.9405E-05 -4.0712E-05 -8.8763E-05  3.2185E-05
        4899   4         1.3355E-03 -1.5985E-05  1.2613E-05  2.3121E-06 -6.0833E-05 -1.2279E-05
        4899   5         1.2945E-03  3.1060E-05  6.6179E-06  5.4982E-05 -1.7501E-04  2.1710E-06
        4899   6         1.3770E-03 -9.7722E-06 -3.5113E-05  7.4583E-05 -1.7032E-04 -1.8870E-05
        4899   7         1.2689E-03  3.3342E-05  2.9941E-05  3.2247E-05 -1.3769E-04  1.2714E-06
        4899   8         1.3178E-03  9.3225E-06  5.0219E-06  7.5270E-05 -1.6020E-04 -1.9769E-05
        4900   1         1.4104E-03 -1.9487E-05 -1.2223E-07  2.1441E-04 -1.6538E-05 -3.0192E-05
        4900   2         1.3324E-03  7.2668E-06  5.1127E-05  2.0164E-04  7.7022E-05  2.6430E-05
        4900   3         1.3282E-03  4.9904E-05  1.2647E-05  3.0130E-04 -1.8504E-05 -5.6960E-06
        4900   4         1.2919E-03  5.5805E-05  4.3044E-05  2.7132E-04  6.9211E-05  5.0926E-05
        4900   5         1.4153E-03 -2.7345E-05  2.8241E-06  1.0966E-04 -1.1147E-04 -3.2618E-06
        4900   6         1.3392E-03  1.3565E-06  5.0177E-05  9.6886E-05  4.4651E-05  3.6155E-05
        4900   7         1.3389E-03  3.0575E-05  2.1328E-05  2.5910E-04 -1.1343E-04  1.5389E-05
        4900   8         1.3045E-03  3.8425E-05  4.7829E-05  2.2912E-04  3.6840E-05  5.4806E-05
        4901   1         1.2666E-03 -1.4970E-06  2.7900E-05  1.7282E-04  1.3704E-04  5.1716E-05
        4901   2         1.2749E-03 -4.8036E-06  2.2999E-05  1.8465E-04  2.0744E-04  1.3722E-05
        4901   3         1.2426E-03 -8.4800E-06  5.8911E-05  2.3335E-04  1.2659E-04  5.0122E-05
        4901   4         1.1678E-03  2.9709E-05  9.5506E-05  2.4913E-04  1.9562E-04  1.2128E-05
        4901   5         1.2662E-03  9.8742E-06  1.6989E-05  1.8434E-04  8.1998E-05  3.7735E-05
        4901   6         1.2748E-03  7.0242E-06  1.1175E-05  1.9617E-04  2.7917E-05  3.6899E-06
        4901   7         1.2408E-03  5.5238E-06  4.6684E-05  1.2038E-04  7.1547E-05  3.4771E-05
        4901   8         1.1665E-03  4.4169E-05  8.2365E-05  1.3616E-04  1.6096E-05  7.2577E-07
        4902   1         1.2103E-03 -8.0913E-05 -8.6240E-06  1.9231E-04  1.9342E-04  9.4196E-08
        4902   2         1.1358E-03 -3.4818E-05  1.9827E-05  1.7920E-04  8.4705E-05  1.2162E-05
        4902   3         1.0751E-03 -7.2446E-06  5.2977E-05  7.8698E-05  1.8021E-04 -1.7550E-05
        4902   4         1.0519E-03  1.3150E-05  5.5728E-05  6.9702E-05  6.9066E-05 -5.4819E-06
        4902   5         1.2191E-03 -8.5253E-05 -1.3060E-05  7.1672E-05 -3.4500E-06 -5.0594E-06
        4902   6         1.1454E-03 -3.8349E-05  1.3773E-05  5.8556E-05 -3.5065E-05  1.1129E-05
        4902   7         1.0825E-03 -8.8376E-06  4.7167E-05  3.5157E-05 -1.6662E-05 -2.5131E-05
        4902   8         1.0601E-03  1.2367E-05  4.8300E-05  2.6161E-05 -5.0705E-05 -8.9424E-06
        4903   1         1.0588E-03 -2.3693E-05  1.6338E-05  6.1353E-05 -1.2451E-06  2.5632E-06
        4903   2         1.0001E-03 -4.1482E-06  5.5470E-05  6.8570E-05 -1.2735E-04 -4.0110E-06
        4903   3         1.0281E-03 -1.1655E-05  3.4951E-05 -6.0841E-05 -1.5224E-05  2.2150E-05
        4903   4         1.0465E-03 -3.0619E-05  3.5574E-05 -5.0938E-05 -1.3437E-04  1.5575E-05
        4903   5         1.0610E-03 -1.4223E-05  4.6137E-06 -1.6869E-05 -5.0509E-05  1.8214E-06
        4903   6         1.0000E-03  3.0006E-06  4.8389E-05 -9.6521E-06 -6.1089E-05 -2.0669E-06
        4903   7         1.0295E-03 -3.9349E-07  2.2331E-05 -2.3536E-05 -6.4488E-05  2.8374E-05
        4903   8         1.0455E-03 -2.1679E-05  2.7598E-05 -1.3633E-05 -6.8102E-05  2.4485E-05
        4904   1         1.0021E-03 -7.0167E-06  5.8725E-05 -1.2632E-04 -1.4848E-04  2.1688E-05
        4904   2         1.0577E-03 -2.4020E-05  2.0104E-05 -1.3464E-04 -8.0104E-05  3.1440E-05
        4904   3         1.0561E-03 -2.9134E-05  2.6856E-05 -6.8835E-05 -1.6081E-04  7.0715E-08
        4904   4         1.0703E-03 -2.5472E-05  8.9010E-06 -8.0407E-05 -1.1390E-04  9.8223E-06
        4904   5         1.0089E-03 -8.4540E-06  5.3282E-05 -5.3691E-05 -6.2626E-05  4.0710E-05
        4904   6         1.0717E-03 -1.8300E-05  3.4490E-07 -6.2009E-05 -5.6246E-05  4.7207E-05
        4904   7         1.0640E-03 -3.2741E-05  2.2497E-05 -5.8206E-05 -7.4950E-05 -2.3816E-06
        4904   8         1.0855E-03 -2.1921E-05 -9.7733E-06 -6.9777E-05 -9.0044E-05  4.1156E-06
        4905   1         1.0901E-03 -6.1001E-06 -7.2825E-06 -1.6370E-04 -2.1470E-05  1.7157E-05
        4905   2         1.1261E-03 -9.1309E-06 -4.0261E-05 -1.4852E-04  7.0342E-05 -1.1915E-05
        4905   3         1.0894E-03 -2.0316E-05  7.5736E-06 -7.0701E-05 -5.8974E-05 -1.2791E-05
        4905   4         1.0951E-03 -8.1740E-06 -1.0232E-05 -4.6709E-05  4.4184E-05 -4.1863E-05
        4905   5         1.0975E-03  1.6519E-05 -3.7344E-05 -1.2466E-04 -3.6966E-05  2.1662E-05
        4905   6         1.1297E-03  9.7061E-06 -6.2758E-05 -1.0948E-04  9.3269E-06  1.4058E-06
        4905   7         1.0939E-03  8.1804E-06 -2.5427E-05 -7.7179E-05 -7.4471E-05  3.0607E-06
        4905   8         1.0958E-03  1.6540E-05 -3.5668E-05 -5.3187E-05 -1.6831E-05 -1.7195E-05
        4906   1         1.1097E-03 -2.3520E-05 -5.9176E-05 -9.2510E-05  1.0006E-04 -3.7125E-05
        4906   2         1.0691E-03 -4.2341E-06 -3.7838E-05 -9.0550E-05  8.9458E-05 -1.2402E-05
        4906   3         1.0469E-03  2.0233E-05 -4.0145E-05 -8.8943E-05  8.1827E-05 -3.5074E-05
        4906   4         9.9878E-04  4.3287E-05 -1.5040E-05 -1.0530E-04  8.1513E-05 -1.0351E-05
        4906   5         1.1151E-03 -1.6135E-05 -7.1987E-05 -1.5242E-04  1.8251E-05 -3.4929E-05
        4906   6         1.0711E-03 -2.7938E-07 -4.3788E-05 -1.5046E-04 -3.6598E-06 -2.8519E-05
        4906   7         1.0585E-03  1.5410E-05 -4.6853E-05 -1.6016E-04  1.3916E-08 -2.2585E-05
        4906   8         1.0069E-03  3.5033E-05 -1.4885E-05 -1.7651E-04 -1.1605E-05 -1.6174E-05
        4907   1         1.0488E-03  4.9434E-05 -3.6144E-05 -3.7537E-05  5.9801E-05  4.8774E-06
        4907   2         1.0508E-03  4.7633E-05 -3.6249E-05 -1.5013E-05 -1.0616E-05 -2.6074E-06
        4907   3         9.9879E-04  7.0719E-05 -7.3744E-06 -1.0981E-04  5.8921E-05  6.5741E-06
        4907   4         1.0343E-03  5.2133E-05 -2.4264E-05 -7.4606E-05 -2.4860E-06 -9.1076E-07
        4907   5         1.0416E-03  6.4743E-05 -4.4238E-05 -3.3829E-05 -1.9023E-05 -1.7649E-05
        4907   6         1.0405E-03  5.9938E-05 -3.8337E-05 -1.1305E-05 -3.9086E-05 -1.2456E-05
        4907   7         9.8735E-04  9.4480E-05 -1.9695E-05 -5.5745E-05 -1.9903E-05 -6.9427E-06
        4907   8         1.0198E-03  7.2890E-05 -3.0578E-05 -2.0544E-05 -3.0956E-05 -1.7499E-06
        4908   1         1.1298E-03 -4.1369E-05  3.1695E-06  1.2103E-05 -2.1876E-05 -4.8047E-05
        4908   2         1.2092E-03 -9.4090E-05 -2.3559E-05  1.0705E-05  1.7780E-05 -6.7333E-05
        4908   3         1.1335E-03 -5.2868E-05  1.0957E-05  4.7631E-05 -1.4042E-05 -2.2055E-05
        4908   4         1.2238E-03 -1.1102E-04 -2.1201E-05  4.0597E-05  1.5795E-05 -4.1341E-05
        4908   5         1.1276E-03 -4.4913E-05  8.8584E-06  1.4427E-04 -2.5952E-05 -3.7789E-05
        4908   6         1.2103E-03 -9.4361E-05 -2.4416E-05  1.4287E-04  2.9994E-05 -6.2711E-05
        4908   7         1.1332E-03 -6.0169E-05  1.8524E-05  1.9609E-04 -1.8118E-05 -2.1616E-05
        4908   8         1.2268E-03 -1.1505E-04 -2.0180E-05  1.8906E-04  2.8009E-05 -4.6537E-05
        4909   1         1.2550E-03  3.9641E-05  8.0330E-06 -7.4378E-05  2.5391E-05 -3.3917E-05
        4909   2         1.2097E-03  6.2705E-05  3.0219E-05 -1.1013E-04  6.5301E-06  9.8923E-06
        4909   3         1.2615E-03  5.8298E-05 -1.7120E-05 -9.7474E-05  1.2905E-05 -3.4795E-05
        4909   4         1.2408E-03  6.9092E-05 -7.2034E-06 -1.4778E-04 -2.4827E-05  9.0144E-06
        4909   5         1.2711E-03  1.9971E-05  1.1625E-05 -1.4269E-04  5.7041E-05 -4.9605E-05
        4909   6         1.2321E-03  4.9325E-05  2.1231E-05 -1.7844E-04  7.4987E-05 -2.0351E-05
        4909   7         1.2824E-03  2.8923E-05 -8.6759E-06 -1.2898E-04  4.4554E-05 -6.9353E-05
        4909   8         1.2680E-03  4.6008E-05 -1.1340E-05 -1.7928E-04  4.3631E-05 -4.0100E-05
        4910   1         1.1487E-03 -1.8972E-05  6.7480E-06 -1.4493E-04 -1.3675E-05  2.7530E-05
        4910   2         1.1192E-03  5.1233E-06  1.2240E-05 -1.4006E-04 -5.0015E-05 -1.4595E-05
        4910   3         1.2282E-03 -7.9750E-05 -1.1904E-05 -1.8454E-04 -4.3882E-05  8.9256E-06
        4910   4         1.2280E-03 -7.0364E-05 -2.1122E-05 -1.6235E-04 -5.8211E-05 -3.3199E-05
        4910   5         1.1572E-03 -5.6541E-06 -1.5015E-05 -1.9861E-04  8.4407E-05 -1.6210E-05
        4910   6         1.1203E-03  1.1104E-05  5.1513E-06 -1.9374E-04  9.2196E-05 -4.1016E-05
        4910   7         1.2308E-03 -5.4885E-05 -3.9440E-05 -1.9410E-04  5.4200E-05 -1.2803E-05
        4910   8         1.2233E-03 -5.2836E-05 -3.3984E-05 -1.7190E-04  8.4000E-05 -3.7608E-05
        4911   1         1.1657E-03  8.8221E-05  4.2368E-05  2.5821E-05 -5.5046E-05 -7.4706E-05
        4911   2         1.2324E-03  3.4564E-05  2.9265E-05  2.4435E-05 -3.2452E-05 -6.9806E-05
        4911   3         1.2562E-03  4.5424E-05 -5.3299E-06  4.6219E-05 -5.5087E-05 -3.4153E-05
        4911   4         1.2862E-03  1.0135E-05 -6.4930E-08  4.8804E-05 -3.2224E-05 -2.9253E-05
        4911   5         1.1662E-03  8.7310E-05  4.2803E-05  1.4624E-04  8.3147E-05 -6.9296E-05
        4911   6         1.2328E-03  3.3564E-05  2.9879E-05  1.4485E-04  5.0636E-05 -6.0424E-05
        4911   7         1.2553E-03  4.7161E-05 -6.2188E-06  1.1153E-04  8.3106E-05 -2.8473E-05
        4911   8         1.2853E-03  1.1783E-05 -7.7472E-07  1.1412E-04  5.0864E-05 -1.9601E-05
        4912   1         1.2723E-03  1.8588E-05  5.5027E-05  1.0522E-04 -1.8204E-05 -4.6104E-05
        4912   2         1.2467E-03  2.8365E-05  7.0824E-05  8.9705E-05 -1.8729E-06 -4.2108E-05
        4912   3         1.3074E-03  3.0211E-06  3.5463E-05  1.1813E-04 -1.7278E-05 -4.0084E-05
        4912   4         1.2669E-03  2.0288E-05  5.8751E-05  1.0901E-04  6.9303E-07 -3.6087E-05
        4912   5         1.2772E-03  7.9371E-06  6.0815E-05  6.9867E-05  3.6489E-05 -2.3946E-05
        4912   6         1.2510E-03  1.7167E-05  7.7706E-05  5.4354E-05  3.0349E-05 -1.3560E-05
        4912   7         1.3102E-03 -3.3699E-06  3.9122E-05  6.0312E-05  3.7415E-05 -1.6286E-05
        4912   8         1.2691E-03  1.3351E-05  6.3503E-05  5.1189E-05  3.2915E-05 -5.9001E-06
        4913   1         1.2604E-03  1.2475E-05  9.8752E-05  1.5825E-05  2.2433E-05  5.8753E-06
        4913   2         1.2751E-03 -1.4674E-05  1.1114E-04  3.5903E-05  7.2505E-05  5.6090E-05
        4913   3         1.2547E-03  4.0440E-05  7.6503E-05  5.6953E-05  1.5738E-05  4.5409E-05
        4913   4         1.2558E-03  2.0088E-05  9.5684E-05  6.8675E-05  3.8871E-05  9.5623E-05
        4913   5         1.2559E-03  2.8092E-05  8.7596E-05  5.7740E-05  3.8966E-05  4.4904E-05
        4913   6         1.2797E-03  9.9223E-06  8.2021E-05  7.7817E-05  6.8647E-05  8.6763E-05
        4913   7         1.2530E-03  5.0486E-05  6.8132E-05  7.8475E-05  3.2271E-05  5.7498E-05
        4913   8         1.2631E-03  3.9114E-05  6.9354E-05  9.0197E-05  3.5012E-05  9.9356E-05

  TOTAL                  49.13     -1.1369E-15 -1.0438E-15  1.5379E-16  1.5577E-14 -1.8919E-17                                    


          THE ANALYSIS HAS BEEN COMPLETED



                              ANALYSIS COMPLETE



     JOB TIME SUMMARY
       USER TIME (SEC)      =   6.5000    
       SYSTEM TIME (SEC)    =  0.70000    
       TOTAL CPU TIME (SEC) =   7.2000    
       WALLCLOCK TIME (SEC) =          8
