*Preprint, echo=NO, model=No, history=NO, contact=NO
*Heading
****************************************************
*node
1, 0, 0, 0 
307, 0, 0, 16 
18, 0, 16, 0 
324, 0, 16, 16 
5509, 16, 0, 0 
5815, 16, 0, 16 
5526, 16, 16, 0 
5832, 16, 16, 16 
*****************************************************
*NSET, NSET=A 
 1 
*NSET, NSET=B 
 307 
*NSET, NSET=C 
 18 
*NSET, NSET=D 
 324 
*NSET, NSET=E 
 5509 
*NSET, NSET=F 
 5815 
*NSET, NSET=G 
 5526 
*NSET, NSET=H 
 5832 
****************************************************
*Nfill, Nset=AB
A, B, 17, 18
*Nfill, Nset=CD
C, D, 17, 18
*Nfill, Nset=ABCD
AB, CD, 17, 1
*Nfill, Nset=EF
E, F, 17, 18
*Nfill, Nset=GH
G, H, 17, 18
*Nfill, Nset=EFGH
EF, GH, 17, 1
*Nfill, Nset=ABCDEFGH
ABCD, EFGH, 17, 324
****************************************************
*Nfill, Nset=BD
B, D, 17, 1
*Nfill, Nset=FH
F, H, 17, 1
*Nfill, Nset=BDFH
BD, FH, 17, 324
*****************************************************
** Bottom Face Node Set
*Nfill, Nset=AC
A, C, 17, 1
*Nfill, Nset=EG
E, G, 17, 1
*Nfill, Nset=ACEG
AC, EG, 17, 324
*****************************************************
*ELEMENT, TYPE=C3D8
1,1,2,20,19,325,326,344,343
*****************************************************
*ELGEN, elset=allel
1,17,1,1,17,18,17,17,324,289
*****************************************************
*ELSET, ELSET=elset1
1,   2,   5,   6,   7,   8,   9,   10,   12,   18,   19,   20,   21,   22,   23,   26,   
29,   30,   31,   32,   36,   37,   41,   43,   46,   47,   48,   49,   53,   54,   58,   59,   
60,   61,   62,   63,   64,   65,   66,   67,   69,   70,   73,   75,   76,   77,   78,   79,   
80,   81,   82,   83,   84,   89,   90,   93,   94,   95,   96,   97,   98,   99,   100,   110,   
113,   114,   115,   116,   117,   120,   121,   127,   133,   136,   137,   138,   148,   152,   153,   161,   
164,   165,   169,   173,   177,   178,   182,   185,   186,   188,   194,   199,   200,   201,   203,   204,   
205,   210,   211,   215,   216,   217,   220,   221,   222,   223,   224,   225,   226,   227,   228,   229,   
230,   231,   232,   237,   238,   239,   240,   241,   242,   243,   244,   245,   246,   247,   248,   254,   
255,   256,   257,   258,   261,   262,   263,   267,   268,   271,   272,   273,   274,   278,   279,   280,   
281,   282,   284,   285,   290,   291,   293,   294,   295,   296,   297,   298,   301,   302,   306,   307,   
310,   311,   312,   313,   314,   315,   318,   319,   320,   323,   326,   327,   328,   329,   330,   331,   
336,   337,   338,   342,   343,   344,   345,   347,   353,   354,   355,   356,   359,   364,   365,   366,   
367,   368,   371,   372,   373,   376,   381,   382,   384,   385,   386,   387,   388,   389,   392,   393,   
403,   404,   405,   406,   409,   410,   414,   419,   420,   421,   422,   425,   426,   427,   432,   433,   
436,   437,   449,   450,   452,   453,   460,   461,   462,   466,   472,   473,   477,   478,   479,   482,   
483,   488,   489,   493,   494,   499,   500,   505,   510,   511,   512,   513,   514,   515,   516,   519,   
520,   526,   527,   528,   529,   530,   531,   532,   533,   534,   535,   536,   537,   542,   543,   544,   
545,   548,   549,   550,   551,   552,   553,   559,   560,   561,   562,   563,   565,   566,   567,   568,   
569,   570,   573,   574,   578,   579,   580,   582,   583,   585,   586,   587,   589,   590,   591,   592,   
595,   599,   602,   603,   604,   607,   608,   609,   612,   615,   616,   617,   618,   625,   626,   627,   
** ... 120 like lines cut
*****************************************************
*ELSET, ELSET=elset2
3,   4,   11,   13,   14,   15,   16,   17,   24,   25,   27,   28,   33,   34,   35,   38,   
39,   40,   42,   44,   45,   50,   51,   52,   55,   56,   57,   68,   71,   72,   74,   85,   
86,   87,   88,   91,   92,   101,   102,   103,   104,   105,   106,   107,   108,   109,   111,   112,   
118,   119,   122,   123,   124,   125,   126,   128,   129,   130,   131,   132,   134,   135,   139,   140,   
141,   142,   143,   144,   145,   146,   147,   149,   150,   151,   154,   155,   156,   157,   158,   159,   
160,   162,   163,   166,   167,   168,   170,   171,   172,   174,   175,   176,   179,   180,   181,   183,   
184,   187,   189,   190,   191,   192,   193,   195,   196,   197,   198,   202,   206,   207,   208,   209,   
212,   213,   214,   218,   219,   233,   234,   235,   236,   249,   250,   251,   252,   253,   259,   260,   
264,   265,   266,   269,   270,   275,   276,   277,   283,   286,   287,   288,   289,   292,   299,   300,   
303,   304,   305,   308,   309,   316,   317,   321,   322,   324,   325,   332,   333,   334,   335,   339,   
340,   341,   346,   348,   349,   350,   351,   352,   357,   358,   360,   361,   362,   363,   369,   370,   
374,   375,   377,   378,   379,   380,   383,   390,   391,   394,   395,   396,   397,   398,   399,   400,   
401,   402,   407,   408,   411,   412,   413,   415,   416,   417,   418,   423,   424,   428,   429,   430,   
431,   434,   435,   438,   439,   440,   441,   442,   443,   444,   445,   446,   447,   448,   451,   454,   
455,   456,   457,   458,   459,   463,   464,   465,   467,   468,   469,   470,   471,   474,   475,   476,   
480,   481,   484,   485,   486,   487,   490,   491,   492,   495,   496,   497,   498,   501,   502,   503,   
504,   506,   507,   508,   509,   517,   518,   521,   522,   523,   524,   525,   538,   539,   540,   541,   
546,   547,   554,   555,   556,   557,   558,   564,   571,   572,   575,   576,   577,   581,   584,   588,   
593,   594,   596,   597,   598,   600,   601,   605,   606,   610,   611,   613,   614,   619,   620,   621,   
622,   623,   624,   629,   630,   637,   638,   639,   640,   641,   646,   647,   648,   650,   654,   655,   
** ... 148 like lines cut
*****************************************************
*NSET, NSET=n1plus
5528,   5529,   5530,   5531,   5532,   5533,   5534,   5535,   5536,   5537,   5538,   5539,   5540,   5541,   5542,   5543,   
5546,   5547,   5548,   5549,   5550,   5551,   5552,   5553,   5554,   5555,   5556,   5557,   5558,   5559,   5560,   5561,   
5564,   5565,   5566,   5567,   5568,   5569,   5570,   5571,   5572,   5573,   5574,   5575,   5576,   5577,   5578,   5579,   
5582,   5583,   5584,   5585,   5586,   5587,   5588,   5589,   5590,   5591,   5592,   5593,   5594,   5595,   5596,   5597,   
5600,   5601,   5602,   5603,   5604,   5605,   5606,   5607,   5608,   5609,   5610,   5611,   5612,   5613,   5614,   5615,   
5618,   5619,   5620,   5621,   5622,   5623,   5624,   5625,   5626,   5627,   5628,   5629,   5630,   5631,   5632,   5633,   
5636,   5637,   5638,   5639,   5640,   5641,   5642,   5643,   5644,   5645,   5646,   5647,   5648,   5649,   5650,   5651,   
5654,   5655,   5656,   5657,   5658,   5659,   5660,   5661,   5662,   5663,   5664,   5665,   5666,   5667,   5668,   5669,   
5672,   5673,   5674,   5675,   5676,   5677,   5678,   5679,   5680,   5681,   5682,   5683,   5684,   5685,   5686,   5687,   
5690,   5691,   5692,   5693,   5694,   5695,   5696,   5697,   5698,   5699,   5700,   5701,   5702,   5703,   5704,   5705,   
5708,   5709,   5710,   5711,   5712,   5713,   5714,   5715,   5716,   5717,   5718,   5719,   5720,   5721,   5722,   5723,   
5726,   5727,   5728,   5729,   5730,   5731,   5732,   5733,   5734,   5735,   5736,   5737,   5738,   5739,   5740,   5741,   
5744,   5745,   5746,   5747,   5748,   5749,   5750,   5751,   5752,   5753,   5754,   5755,   5756,   5757,   5758,   5759,   
5762,   5763,   5764,   5765,   5766,   5767,   5768,   5769,   5770,   5771,   5772,   5773,   5774,   5775,   5776,   5777,   
5780,   5781,   5782,   5783,   5784,   5785,   5786,   5787,   5788,   5789,   5790,   5791,   5792,   5793,   5794,   5795,   
5798,   5799,   5800,   5801,   5802,   5803,   5804,   5805,   5806,   5807,   5808,   5809,   5810,   5811,   5812,   5813,   

*****************************************************
*NSET, NSET=n1minus
20,   21,   22,   23,   24,   25,   26,   27,   28,   29,   30,   31,   32,   33,   34,   35,   
38,   39,   40,   41,   42,   43,   44,   45,   46,   47,   48,   49,   50,   51,   52,   53,   
56,   57,   58,   59,   60,   61,   62,   63,   64,   65,   66,   67,   68,   69,   70,   71,   
74,   75,   76,   77,   78,   79,   80,   81,   82,   83,   84,   85,   86,   87,   88,   89,   
92,   93,   94,   95,   96,   97,   98,   99,   100,   101,   102,   103,   104,   105,   106,   107,   
110,   111,   112,   113,   114,   115,   116,   117,   118,   119,   120,   121,   122,   123,   124,   125,   
128,   129,   130,   131,   132,   133,   134,   135,   136,   137,   138,   139,   140,   141,   142,   143,   
146,   147,   148,   149,   150,   151,   152,   153,   154,   155,   156,   157,   158,   159,   160,   161,   
164,   165,   166,   167,   168,   169,   170,   171,   172,   173,   174,   175,   176,   177,   178,   179,   
182,   183,   184,   185,   186,   187,   188,   189,   190,   191,   192,   193,   194,   195,   196,   197,   
200,   201,   202,   203,   204,   205,   206,   207,   208,   209,   210,   211,   212,   213,   214,   215,   
218,   219,   220,   221,   222,   223,   224,   225,   226,   227,   228,   229,   230,   231,   232,   233,   
236,   237,   238,   239,   240,   241,   242,   243,   244,   245,   246,   247,   248,   249,   250,   251,   
254,   255,   256,   257,   258,   259,   260,   261,   262,   263,   264,   265,   266,   267,   268,   269,   
272,   273,   274,   275,   276,   277,   278,   279,   280,   281,   282,   283,   284,   285,   286,   287,   
290,   291,   292,   293,   294,   295,   296,   297,   298,   299,   300,   301,   302,   303,   304,   305,   

*****************************************************
*NSET, NSET=n2minus
343,   361,   379,   397,   415,   433,   451,   469,   487,   505,   523,   541,   559,   577,   595,   613,   
667,   685,   703,   721,   739,   757,   775,   793,   811,   829,   847,   865,   883,   901,   919,   937,   
991,   1009,   1027,   1045,   1063,   1081,   1099,   1117,   1135,   1153,   1171,   1189,   1207,   1225,   1243,   1261,   
1315,   1333,   1351,   1369,   1387,   1405,   1423,   1441,   1459,   1477,   1495,   1513,   1531,   1549,   1567,   1585,   
1639,   1657,   1675,   1693,   1711,   1729,   1747,   1765,   1783,   1801,   1819,   1837,   1855,   1873,   1891,   1909,   
1963,   1981,   1999,   2017,   2035,   2053,   2071,   2089,   2107,   2125,   2143,   2161,   2179,   2197,   2215,   2233,   
2287,   2305,   2323,   2341,   2359,   2377,   2395,   2413,   2431,   2449,   2467,   2485,   2503,   2521,   2539,   2557,   
2611,   2629,   2647,   2665,   2683,   2701,   2719,   2737,   2755,   2773,   2791,   2809,   2827,   2845,   2863,   2881,   
2935,   2953,   2971,   2989,   3007,   3025,   3043,   3061,   3079,   3097,   3115,   3133,   3151,   3169,   3187,   3205,   
3259,   3277,   3295,   3313,   3331,   3349,   3367,   3385,   3403,   3421,   3439,   3457,   3475,   3493,   3511,   3529,   
3583,   3601,   3619,   3637,   3655,   3673,   3691,   3709,   3727,   3745,   3763,   3781,   3799,   3817,   3835,   3853,   
3907,   3925,   3943,   3961,   3979,   3997,   4015,   4033,   4051,   4069,   4087,   4105,   4123,   4141,   4159,   4177,   
4231,   4249,   4267,   4285,   4303,   4321,   4339,   4357,   4375,   4393,   4411,   4429,   4447,   4465,   4483,   4501,   
4555,   4573,   4591,   4609,   4627,   4645,   4663,   4681,   4699,   4717,   4735,   4753,   4771,   4789,   4807,   4825,   
4879,   4897,   4915,   4933,   4951,   4969,   4987,   5005,   5023,   5041,   5059,   5077,   5095,   5113,   5131,   5149,   
5203,   5221,   5239,   5257,   5275,   5293,   5311,   5329,   5347,   5365,   5383,   5401,   5419,   5437,   5455,   5473,   

*****************************************************
*NSET, NSET=n2plus
360,   378,   396,   414,   432,   450,   468,   486,   504,   522,   540,   558,   576,   594,   612,   630,   
684,   702,   720,   738,   756,   774,   792,   810,   828,   846,   864,   882,   900,   918,   936,   954,   
1008,   1026,   1044,   1062,   1080,   1098,   1116,   1134,   1152,   1170,   1188,   1206,   1224,   1242,   1260,   1278,   
1332,   1350,   1368,   1386,   1404,   1422,   1440,   1458,   1476,   1494,   1512,   1530,   1548,   1566,   1584,   1602,   
1656,   1674,   1692,   1710,   1728,   1746,   1764,   1782,   1800,   1818,   1836,   1854,   1872,   1890,   1908,   1926,   
1980,   1998,   2016,   2034,   2052,   2070,   2088,   2106,   2124,   2142,   2160,   2178,   2196,   2214,   2232,   2250,   
2304,   2322,   2340,   2358,   2376,   2394,   2412,   2430,   2448,   2466,   2484,   2502,   2520,   2538,   2556,   2574,   
2628,   2646,   2664,   2682,   2700,   2718,   2736,   2754,   2772,   2790,   2808,   2826,   2844,   2862,   2880,   2898,   
2952,   2970,   2988,   3006,   3024,   3042,   3060,   3078,   3096,   3114,   3132,   3150,   3168,   3186,   3204,   3222,   
3276,   3294,   3312,   3330,   3348,   3366,   3384,   3402,   3420,   3438,   3456,   3474,   3492,   3510,   3528,   3546,   
3600,   3618,   3636,   3654,   3672,   3690,   3708,   3726,   3744,   3762,   3780,   3798,   3816,   3834,   3852,   3870,   
3924,   3942,   3960,   3978,   3996,   4014,   4032,   4050,   4068,   4086,   4104,   4122,   4140,   4158,   4176,   4194,   
4248,   4266,   4284,   4302,   4320,   4338,   4356,   4374,   4392,   4410,   4428,   4446,   4464,   4482,   4500,   4518,   
4572,   4590,   4608,   4626,   4644,   4662,   4680,   4698,   4716,   4734,   4752,   4770,   4788,   4806,   4824,   4842,   
4896,   4914,   4932,   4950,   4968,   4986,   5004,   5022,   5040,   5058,   5076,   5094,   5112,   5130,   5148,   5166,   
5220,   5238,   5256,   5274,   5292,   5310,   5328,   5346,   5364,   5382,   5400,   5418,   5436,   5454,   5472,   5490,   

*****************************************************
*NSET, NSET=n2minus
343,   361,   379,   397,   415,   433,   451,   469,   487,   505,   523,   541,   559,   577,   595,   613,   
667,   685,   703,   721,   739,   757,   775,   793,   811,   829,   847,   865,   883,   901,   919,   937,   
991,   1009,   1027,   1045,   1063,   1081,   1099,   1117,   1135,   1153,   1171,   1189,   1207,   1225,   1243,   1261,   
1315,   1333,   1351,   1369,   1387,   1405,   1423,   1441,   1459,   1477,   1495,   1513,   1531,   1549,   1567,   1585,   
1639,   1657,   1675,   1693,   1711,   1729,   1747,   1765,   1783,   1801,   1819,   1837,   1855,   1873,   1891,   1909,   
1963,   1981,   1999,   2017,   2035,   2053,   2071,   2089,   2107,   2125,   2143,   2161,   2179,   2197,   2215,   2233,   
2287,   2305,   2323,   2341,   2359,   2377,   2395,   2413,   2431,   2449,   2467,   2485,   2503,   2521,   2539,   2557,   
2611,   2629,   2647,   2665,   2683,   2701,   2719,   2737,   2755,   2773,   2791,   2809,   2827,   2845,   2863,   2881,   
2935,   2953,   2971,   2989,   3007,   3025,   3043,   3061,   3079,   3097,   3115,   3133,   3151,   3169,   3187,   3205,   
3259,   3277,   3295,   3313,   3331,   3349,   3367,   3385,   3403,   3421,   3439,   3457,   3475,   3493,   3511,   3529,   
3583,   3601,   3619,   3637,   3655,   3673,   3691,   3709,   3727,   3745,   3763,   3781,   3799,   3817,   3835,   3853,   
3907,   3925,   3943,   3961,   3979,   3997,   4015,   4033,   4051,   4069,   4087,   4105,   4123,   4141,   4159,   4177,   
4231,   4249,   4267,   4285,   4303,   4321,   4339,   4357,   4375,   4393,   4411,   4429,   4447,   4465,   4483,   4501,   
4555,   4573,   4591,   4609,   4627,   4645,   4663,   4681,   4699,   4717,   4735,   4753,   4771,   4789,   4807,   4825,   
4879,   4897,   4915,   4933,   4951,   4969,   4987,   5005,   5023,   5041,   5059,   5077,   5095,   5113,   5131,   5149,   
5203,   5221,   5239,   5257,   5275,   5293,   5311,   5329,   5347,   5365,   5383,   5401,   5419,   5437,   5455,   5473,   

*****************************************************
*NSET, NSET=n3minus
326,   327,   328,   329,   330,   331,   332,   333,   334,   335,   336,   337,   338,   339,   340,   341,   
650,   651,   652,   653,   654,   655,   656,   657,   658,   659,   660,   661,   662,   663,   664,   665,   
974,   975,   976,   977,   978,   979,   980,   981,   982,   983,   984,   985,   986,   987,   988,   989,   
1298,   1299,   1300,   1301,   1302,   1303,   1304,   1305,   1306,   1307,   1308,   1309,   1310,   1311,   1312,   1313,   
1622,   1623,   1624,   1625,   1626,   1627,   1628,   1629,   1630,   1631,   1632,   1633,   1634,   1635,   1636,   1637,   
1946,   1947,   1948,   1949,   1950,   1951,   1952,   1953,   1954,   1955,   1956,   1957,   1958,   1959,   1960,   1961,   
2270,   2271,   2272,   2273,   2274,   2275,   2276,   2277,   2278,   2279,   2280,   2281,   2282,   2283,   2284,   2285,   
2594,   2595,   2596,   2597,   2598,   2599,   2600,   2601,   2602,   2603,   2604,   2605,   2606,   2607,   2608,   2609,   
2918,   2919,   2920,   2921,   2922,   2923,   2924,   2925,   2926,   2927,   2928,   2929,   2930,   2931,   2932,   2933,   
3242,   3243,   3244,   3245,   3246,   3247,   3248,   3249,   3250,   3251,   3252,   3253,   3254,   3255,   3256,   3257,   
3566,   3567,   3568,   3569,   3570,   3571,   3572,   3573,   3574,   3575,   3576,   3577,   3578,   3579,   3580,   3581,   
3890,   3891,   3892,   3893,   3894,   3895,   3896,   3897,   3898,   3899,   3900,   3901,   3902,   3903,   3904,   3905,   
4214,   4215,   4216,   4217,   4218,   4219,   4220,   4221,   4222,   4223,   4224,   4225,   4226,   4227,   4228,   4229,   
4538,   4539,   4540,   4541,   4542,   4543,   4544,   4545,   4546,   4547,   4548,   4549,   4550,   4551,   4552,   4553,   
4862,   4863,   4864,   4865,   4866,   4867,   4868,   4869,   4870,   4871,   4872,   4873,   4874,   4875,   4876,   4877,   
5186,   5187,   5188,   5189,   5190,   5191,   5192,   5193,   5194,   5195,   5196,   5197,   5198,   5199,   5200,   5201,   

*****************************************************
*NSET, NSET=n3plus
632,   633,   634,   635,   636,   637,   638,   639,   640,   641,   642,   643,   644,   645,   646,   647,   
956,   957,   958,   959,   960,   961,   962,   963,   964,   965,   966,   967,   968,   969,   970,   971,   
1280,   1281,   1282,   1283,   1284,   1285,   1286,   1287,   1288,   1289,   1290,   1291,   1292,   1293,   1294,   1295,   
1604,   1605,   1606,   1607,   1608,   1609,   1610,   1611,   1612,   1613,   1614,   1615,   1616,   1617,   1618,   1619,   
1928,   1929,   1930,   1931,   1932,   1933,   1934,   1935,   1936,   1937,   1938,   1939,   1940,   1941,   1942,   1943,   
2252,   2253,   2254,   2255,   2256,   2257,   2258,   2259,   2260,   2261,   2262,   2263,   2264,   2265,   2266,   2267,   
2576,   2577,   2578,   2579,   2580,   2581,   2582,   2583,   2584,   2585,   2586,   2587,   2588,   2589,   2590,   2591,   
2900,   2901,   2902,   2903,   2904,   2905,   2906,   2907,   2908,   2909,   2910,   2911,   2912,   2913,   2914,   2915,   
3224,   3225,   3226,   3227,   3228,   3229,   3230,   3231,   3232,   3233,   3234,   3235,   3236,   3237,   3238,   3239,   
3548,   3549,   3550,   3551,   3552,   3553,   3554,   3555,   3556,   3557,   3558,   3559,   3560,   3561,   3562,   3563,   
3872,   3873,   3874,   3875,   3876,   3877,   3878,   3879,   3880,   3881,   3882,   3883,   3884,   3885,   3886,   3887,   
4196,   4197,   4198,   4199,   4200,   4201,   4202,   4203,   4204,   4205,   4206,   4207,   4208,   4209,   4210,   4211,   
4520,   4521,   4522,   4523,   4524,   4525,   4526,   4527,   4528,   4529,   4530,   4531,   4532,   4533,   4534,   4535,   
4844,   4845,   4846,   4847,   4848,   4849,   4850,   4851,   4852,   4853,   4854,   4855,   4856,   4857,   4858,   4859,   
5168,   5169,   5170,   5171,   5172,   5173,   5174,   5175,   5176,   5177,   5178,   5179,   5180,   5181,   5182,   5183,   
5492,   5493,   5494,   5495,   5496,   5497,   5498,   5499,   5500,   5501,   5502,   5503,   5504,   5505,   5506,   5507,   

*****************************************************
*NSET, NSET=n3minus_n1minus
2,   3,   4,   5,   6,   7,   8,   9,   10,   11,   12,   13,   14,   15,   16,   17,   

*****************************************************
*NSET, NSET=n3minus_n1plus
5510,   5511,   5512,   5513,   5514,   5515,   5516,   5517,   5518,   5519,   5520,   5521,   5522,   5523,   5524,   5525,   

*****************************************************
*NSET, NSET=n2minus_n3minus
325,   649,   973,   1297,   1621,   1945,   2269,   2593,   2917,   3241,   3565,   3889,   4213,   4537,   4861,   5185,   

*****************************************************
*NSET, NSET=n2plus_n3minus
342,   666,   990,   1314,   1638,   1962,   2286,   2610,   2934,   3258,   3582,   3906,   4230,   4554,   4878,   5202,   

*****************************************************
*NSET, NSET=n3plus_n1minus
308,   309,   310,   311,   312,   313,   314,   315,   316,   317,   318,   319,   320,   321,   322,   323,   

*****************************************************
*NSET, NSET=n3plus_n1plus
5816,   5817,   5818,   5819,   5820,   5821,   5822,   5823,   5824,   5825,   5826,   5827,   5828,   5829,   5830,   5831,   

*****************************************************
*NSET, NSET=n2minus_n3plus
631,   955,   1279,   1603,   1927,   2251,   2575,   2899,   3223,   3547,   3871,   4195,   4519,   4843,   5167,   5491,   

*****************************************************
*NSET, NSET=n2plus_n3plus
648,   972,   1296,   1620,   1944,   2268,   2592,   2916,   3240,   3564,   3888,   4212,   4536,   4860,   5184,   5508,   

*****************************************************
*NSET, NSET=n1plus_n2minus
5527,   5545,   5563,   5581,   5599,   5617,   5635,   5653,   5671,   5689,   5707,   5725,   5743,   5761,   5779,   5797,   

*****************************************************
*NSET, NSET=n1plus_n2plus
5544,   5562,   5580,   5598,   5616,   5634,   5652,   5670,   5688,   5706,   5724,   5742,   5760,   5778,   5796,   5814,   

*****************************************************
*NSET, NSET=n1minus_n2minus
19,   37,   55,   73,   91,   109,   127,   145,   163,   181,   199,   217,   235,   253,   271,   289,   

*****************************************************
*NSET, NSET=n1minus_n2plus
36,   54,   72,   90,   108,   126,   144,   162,   180,   198,   216,   234,   252,   270,   288,   306,   

*****************************************************
** Implement Periodic Boundary Conditions
*Equation
3
n1plus, 1, 1, n1minus, 1, -1, 5832, 1, -1
2
n1plus, 2, 1, n1minus, 2, -1
2
n1plus, 3, 1, n1minus, 3, -1
**
2
n2plus, 1, 1, n2minus, 1, -1
2
n2plus, 2, 1, n2minus, 2, -1
2
n2plus, 3, 1, n2minus, 3, -1
**
2
n3plus, 1, 1, n3minus, 1, -1
2
n3plus, 2, 1, n3minus, 2, -1
2
n3plus, 3, 1, n3minus, 3, -1
**
3
n1plus_n2plus, 1, 1, n1minus_n2plus, 1, -1, 5832, 1, -1
3
n1plus_n2minus, 1, 1, n1minus_n2minus, 1, -1, 5832, 1, -1
2
n1minus_n2plus, 1, 1, n1minus_n2minus, 1, -1
**
2
n1plus_n2plus, 2, 1, n1minus_n2plus, 2, -1
2
n1plus_n2minus, 2, 1, n1minus_n2minus, 2, -1
2
n1minus_n2plus, 2, 1, n1minus_n2minus, 2, -1
**
2
n1plus_n2plus, 3, 1, n1minus_n2plus, 3, -1
2
n1plus_n2minus, 3, 1, n1minus_n2minus, 3, -1
2
n1minus_n2plus, 3, 1, n1minus_n2minus, 3, -1
**
**
3
n3plus_n1plus, 1, 1, n3plus_n1minus, 1, -1, 5832, 1, -1
3
n3minus_n1plus, 1, 1, n3minus_n1minus, 1, -1, 5832, 1, -1
2
n3plus_n1minus, 1, 1, n3minus_n1minus, 1, -1
**
2
n3plus_n1plus, 2, 1, n3plus_n1minus, 2, -1
2
n3minus_n1plus, 2, 1, n3minus_n1minus, 2, -1
2
n3plus_n1minus, 2, 1, n3minus_n1minus, 2, -1
**
2
n3plus_n1plus, 3, 1, n3plus_n1minus, 3, -1
2
n3minus_n1plus, 3, 1, n3minus_n1minus, 3, -1
2
n3plus_n1minus, 3, 1, n3minus_n1minus, 3, -1
**
**
2
n2plus_n3plus, 1, 1, n2minus_n3plus, 1, -1
2
n2plus_n3minus, 1, 1, n2minus_n3minus, 1, -1
2
n2minus_n3plus, 1, 1, n2minus_n3minus, 1, -1
**
2
n2plus_n3plus, 2, 1, n2minus_n3plus, 2, -1
2
n2plus_n3minus, 2, 1, n2minus_n3minus, 2, -1
2
n2minus_n3plus, 2, 1, n2minus_n3minus, 2, -1
**
2
n2plus_n3plus, 3, 1, n2minus_n3plus, 3, -1
2
n2plus_n3minus, 3, 1, n2minus_n3minus, 3, -1
2
n2minus_n3plus, 3, 1, n2minus_n3minus, 3, -1
**** ----------------------------------------------------------------- 
** MATERIALS
**
*Solid Section, elset=elset1, material=material-1
1.,
*Material, name=material-1
*Elastic,type=isotropic
120, 0.3
** Solid (element 2 = elset2)
**
*Solid Section, elset=elset2, material=material-2
1.,
**
*Material, name=material-2
*Elastic,type=isotropic
80, 0.3
** ----------------------------------------------------------------
**     
** ----------------------------------------------------------------
** 
** STEP: Step-1
** 
*Step, name=Step-1
*Static
1., 1., 1e-05, 1.
** 
** BOUNDARY CONDITIONS
** 
** Name: BC-1 Type: Displacement/Rotation
*Boundary
**
1,1,3,0
307,1,3,0
18,1,3,0
324,1,3,0
5509,1,1,0.02
5815,1,1,0.02
5526,1,1,0.02
5832,1,1,0.02
5509,2,3,0
5815,2,3,0
5526,2,3,0
5832,2,3,0
** 
** OUTPUT REQUESTS
**
*output, field, frequency=0
**
*output, history, frequency=0
** 
*el print, summary=no, totals=yes
E
**
*End Step
