*Preprint, echo=NO, model=No, history=NO, contact=NO
*Heading
****************************************************
*node
1, 0, 0, 0 
463, 0, 0, 20 
22, 0, 20, 0 
484, 0, 20, 20 
10165, 20, 0, 0 
10627, 20, 0, 20 
10186, 20, 20, 0 
10648, 20, 20, 20 
*****************************************************
*NSET, NSET=A 
 1 
*NSET, NSET=B 
 463 
*NSET, NSET=C 
 22 
*NSET, NSET=D 
 484 
*NSET, NSET=E 
 10165 
*NSET, NSET=F 
 10627 
*NSET, NSET=G 
 10186 
*NSET, NSET=H 
 10648 
****************************************************
*Nfill, Nset=AB
A, B, 21, 22
*Nfill, Nset=CD
C, D, 21, 22
*Nfill, Nset=ABCD
AB, CD, 21, 1
*Nfill, Nset=EF
E, F, 21, 22
*Nfill, Nset=GH
G, H, 21, 22
*Nfill, Nset=EFGH
EF, GH, 21, 1
*Nfill, Nset=ABCDEFGH
ABCD, EFGH, 21, 484
****************************************************
*Nfill, Nset=BD
B, D, 21, 1
*Nfill, Nset=FH
F, H, 21, 1
*Nfill, Nset=BDFH
BD, FH, 21, 484
*****************************************************
** Bottom Face Node Set
*Nfill, Nset=AC
A, C, 21, 1
*Nfill, Nset=EG
E, G, 21, 1
*Nfill, Nset=ACEG
AC, EG, 21, 484
*****************************************************
*ELEMENT, TYPE=C3D8
1,1,2,24,23,485,486,508,507
*****************************************************
*ELGEN, elset=allel
1,21,1,1,21,22,21,21,484,441
*****************************************************
*ELSET, ELSET=elset1
1,   2,   3,   4,   5,   6,   7,   8,   9,   10,   11,   14,   15,   16,   17,   21,   
22,   23,   24,   25,   26,   27,   28,   29,   30,   31,   36,   37,   42,   43,   44,   45,   
46,   47,   48,   50,   51,   57,   58,   59,   63,   66,   67,   68,   74,   75,   76,   77,   
78,   79,   80,   81,   83,   84,   87,   88,   89,   96,   97,   98,   99,   106,   107,   108,   
109,   110,   115,   116,   118,   119,   120,   121,   122,   123,   126,   127,   128,   129,   130,   134,   
135,   136,   137,   139,   140,   141,   142,   143,   144,   145,   147,   148,   150,   151,   152,   153,   
154,   155,   156,   157,   158,   160,   161,   162,   163,   164,   165,   166,   167,   168,   172,   173,   
174,   175,   176,   177,   178,   179,   180,   181,   182,   183,   184,   187,   188,   189,   190,   191,   
193,   196,   197,   198,   199,   200,   201,   208,   209,   210,   211,   212,   213,   214,   215,   216,   
218,   219,   220,   221,   225,   229,   230,   231,   233,   234,   235,   236,   239,   240,   243,   244,   
245,   246,   247,   249,   250,   254,   255,   256,   264,   265,   267,   268,   269,   270,   274,   275,   
277,   278,   285,   286,   288,   289,   290,   291,   295,   296,   298,   299,   302,   305,   306,   307,   
310,   311,   315,   316,   320,   321,   322,   323,   324,   325,   326,   327,   328,   331,   332,   335,   
336,   340,   341,   342,   343,   346,   347,   348,   349,   352,   353,   356,   357,   360,   361,   362,   
363,   364,   365,   366,   367,   368,   369,   370,   371,   373,   374,   385,   386,   389,   390,   391,   
392,   394,   395,   396,   397,   400,   401,   402,   403,   404,   410,   411,   412,   416,   417,   418,   
420,   421,   422,   423,   424,   425,   431,   432,   434,   435,   436,   437,   441,   442,   443,   445,   
446,   447,   448,   449,   452,   456,   457,   458,   459,   460,   461,   463,   464,   466,   467,   468,   
469,   470,   471,   472,   477,   478,   479,   481,   482,   487,   488,   491,   492,   493,   499,   500,   
502,   503,   508,   509,   513,   514,   519,   520,   521,   524,   526,   527,   528,   529,   530,   539,   
** ... 317 like lines cut
*****************************************************
*ELSET, ELSET=elset2
12,   13,   18,   19,   20,   32,   33,   34,   35,   38,   39,   40,   41,   49,   52,   53,   
54,   55,   56,   60,   61,   62,   64,   65,   69,   70,   71,   72,   73,   82,   85,   86,   
90,   91,   92,   93,   94,   95,   100,   101,   102,   103,   104,   105,   111,   112,   113,   114,   
117,   124,   125,   131,   132,   133,   138,   146,   149,   159,   169,   170,   171,   185,   186,   192,   
194,   195,   202,   203,   204,   205,   206,   207,   217,   222,   223,   224,   226,   227,   228,   232,   
237,   238,   241,   242,   248,   251,   252,   253,   257,   258,   259,   260,   261,   262,   263,   266,   
271,   272,   273,   276,   279,   280,   281,   282,   283,   284,   287,   292,   293,   294,   297,   300,   
301,   303,   304,   308,   309,   312,   313,   314,   317,   318,   319,   329,   330,   333,   334,   337,   
338,   339,   344,   345,   350,   351,   354,   355,   358,   359,   372,   375,   376,   377,   378,   379,   
380,   381,   382,   383,   384,   387,   388,   393,   398,   399,   405,   406,   407,   408,   409,   413,   
414,   415,   419,   426,   427,   428,   429,   430,   433,   438,   439,   440,   444,   450,   451,   453,   
454,   455,   462,   465,   473,   474,   475,   476,   480,   483,   484,   485,   486,   489,   490,   494,   
495,   496,   497,   498,   501,   504,   505,   506,   507,   510,   511,   512,   515,   516,   517,   518,   
522,   523,   525,   531,   532,   533,   534,   535,   536,   537,   538,   543,   544,   545,   551,   552,   
553,   554,   555,   565,   572,   586,   590,   599,   606,   607,   610,   611,   612,   616,   621,   623,   
626,   627,   628,   632,   637,   642,   643,   644,   645,   646,   647,   648,   658,   659,   660,   661,   
664,   665,   667,   668,   669,   673,   679,   680,   681,   682,   688,   689,   690,   692,   693,   694,   
695,   696,   697,   699,   700,   701,   702,   703,   704,   707,   713,   714,   716,   717,   718,   720,   
721,   722,   723,   724,   725,   726,   727,   728,   734,   737,   741,   742,   744,   745,   746,   747,   
748,   749,   750,   758,   765,   766,   767,   770,   771,   779,   780,   785,   786,   787,   799,   800,   
** ... 223 like lines cut
*****************************************************
*NSET, NSET=n1plus
10188,   10189,   10190,   10191,   10192,   10193,   10194,   10195,   10196,   10197,   10198,   10199,   10200,   10201,   10202,   10203,   
10204,   10205,   10206,   10207,   10210,   10211,   10212,   10213,   10214,   10215,   10216,   10217,   10218,   10219,   10220,   10221,   
10222,   10223,   10224,   10225,   10226,   10227,   10228,   10229,   10232,   10233,   10234,   10235,   10236,   10237,   10238,   10239,   
10240,   10241,   10242,   10243,   10244,   10245,   10246,   10247,   10248,   10249,   10250,   10251,   10254,   10255,   10256,   10257,   
10258,   10259,   10260,   10261,   10262,   10263,   10264,   10265,   10266,   10267,   10268,   10269,   10270,   10271,   10272,   10273,   
10276,   10277,   10278,   10279,   10280,   10281,   10282,   10283,   10284,   10285,   10286,   10287,   10288,   10289,   10290,   10291,   
10292,   10293,   10294,   10295,   10298,   10299,   10300,   10301,   10302,   10303,   10304,   10305,   10306,   10307,   10308,   10309,   
10310,   10311,   10312,   10313,   10314,   10315,   10316,   10317,   10320,   10321,   10322,   10323,   10324,   10325,   10326,   10327,   
10328,   10329,   10330,   10331,   10332,   10333,   10334,   10335,   10336,   10337,   10338,   10339,   10342,   10343,   10344,   10345,   
10346,   10347,   10348,   10349,   10350,   10351,   10352,   10353,   10354,   10355,   10356,   10357,   10358,   10359,   10360,   10361,   
10364,   10365,   10366,   10367,   10368,   10369,   10370,   10371,   10372,   10373,   10374,   10375,   10376,   10377,   10378,   10379,   
10380,   10381,   10382,   10383,   10386,   10387,   10388,   10389,   10390,   10391,   10392,   10393,   10394,   10395,   10396,   10397,   
10398,   10399,   10400,   10401,   10402,   10403,   10404,   10405,   10408,   10409,   10410,   10411,   10412,   10413,   10414,   10415,   
10416,   10417,   10418,   10419,   10420,   10421,   10422,   10423,   10424,   10425,   10426,   10427,   10430,   10431,   10432,   10433,   
10434,   10435,   10436,   10437,   10438,   10439,   10440,   10441,   10442,   10443,   10444,   10445,   10446,   10447,   10448,   10449,   
10452,   10453,   10454,   10455,   10456,   10457,   10458,   10459,   10460,   10461,   10462,   10463,   10464,   10465,   10466,   10467,   
10468,   10469,   10470,   10471,   10474,   10475,   10476,   10477,   10478,   10479,   10480,   10481,   10482,   10483,   10484,   10485,   
10486,   10487,   10488,   10489,   10490,   10491,   10492,   10493,   10496,   10497,   10498,   10499,   10500,   10501,   10502,   10503,   
10504,   10505,   10506,   10507,   10508,   10509,   10510,   10511,   10512,   10513,   10514,   10515,   10518,   10519,   10520,   10521,   
10522,   10523,   10524,   10525,   10526,   10527,   10528,   10529,   10530,   10531,   10532,   10533,   10534,   10535,   10536,   10537,   
** ... 5 like lines cut

*****************************************************
*NSET, NSET=n1minus
24,   25,   26,   27,   28,   29,   30,   31,   32,   33,   34,   35,   36,   37,   38,   39,   
40,   41,   42,   43,   46,   47,   48,   49,   50,   51,   52,   53,   54,   55,   56,   57,   
58,   59,   60,   61,   62,   63,   64,   65,   68,   69,   70,   71,   72,   73,   74,   75,   
76,   77,   78,   79,   80,   81,   82,   83,   84,   85,   86,   87,   90,   91,   92,   93,   
94,   95,   96,   97,   98,   99,   100,   101,   102,   103,   104,   105,   106,   107,   108,   109,   
112,   113,   114,   115,   116,   117,   118,   119,   120,   121,   122,   123,   124,   125,   126,   127,   
128,   129,   130,   131,   134,   135,   136,   137,   138,   139,   140,   141,   142,   143,   144,   145,   
146,   147,   148,   149,   150,   151,   152,   153,   156,   157,   158,   159,   160,   161,   162,   163,   
164,   165,   166,   167,   168,   169,   170,   171,   172,   173,   174,   175,   178,   179,   180,   181,   
182,   183,   184,   185,   186,   187,   188,   189,   190,   191,   192,   193,   194,   195,   196,   197,   
200,   201,   202,   203,   204,   205,   206,   207,   208,   209,   210,   211,   212,   213,   214,   215,   
216,   217,   218,   219,   222,   223,   224,   225,   226,   227,   228,   229,   230,   231,   232,   233,   
234,   235,   236,   237,   238,   239,   240,   241,   244,   245,   246,   247,   248,   249,   250,   251,   
252,   253,   254,   255,   256,   257,   258,   259,   260,   261,   262,   263,   266,   267,   268,   269,   
270,   271,   272,   273,   274,   275,   276,   277,   278,   279,   280,   281,   282,   283,   284,   285,   
288,   289,   290,   291,   292,   293,   294,   295,   296,   297,   298,   299,   300,   301,   302,   303,   
304,   305,   306,   307,   310,   311,   312,   313,   314,   315,   316,   317,   318,   319,   320,   321,   
322,   323,   324,   325,   326,   327,   328,   329,   332,   333,   334,   335,   336,   337,   338,   339,   
340,   341,   342,   343,   344,   345,   346,   347,   348,   349,   350,   351,   354,   355,   356,   357,   
358,   359,   360,   361,   362,   363,   364,   365,   366,   367,   368,   369,   370,   371,   372,   373,   
** ... 5 like lines cut

*****************************************************
*NSET, NSET=n2minus
507,   529,   551,   573,   595,   617,   639,   661,   683,   705,   727,   749,   771,   793,   815,   837,   
859,   881,   903,   925,   991,   1013,   1035,   1057,   1079,   1101,   1123,   1145,   1167,   1189,   1211,   1233,   
1255,   1277,   1299,   1321,   1343,   1365,   1387,   1409,   1475,   1497,   1519,   1541,   1563,   1585,   1607,   1629,   
1651,   1673,   1695,   1717,   1739,   1761,   1783,   1805,   1827,   1849,   1871,   1893,   1959,   1981,   2003,   2025,   
2047,   2069,   2091,   2113,   2135,   2157,   2179,   2201,   2223,   2245,   2267,   2289,   2311,   2333,   2355,   2377,   
2443,   2465,   2487,   2509,   2531,   2553,   2575,   2597,   2619,   2641,   2663,   2685,   2707,   2729,   2751,   2773,   
2795,   2817,   2839,   2861,   2927,   2949,   2971,   2993,   3015,   3037,   3059,   3081,   3103,   3125,   3147,   3169,   
3191,   3213,   3235,   3257,   3279,   3301,   3323,   3345,   3411,   3433,   3455,   3477,   3499,   3521,   3543,   3565,   
3587,   3609,   3631,   3653,   3675,   3697,   3719,   3741,   3763,   3785,   3807,   3829,   3895,   3917,   3939,   3961,   
3983,   4005,   4027,   4049,   4071,   4093,   4115,   4137,   4159,   4181,   4203,   4225,   4247,   4269,   4291,   4313,   
4379,   4401,   4423,   4445,   4467,   4489,   4511,   4533,   4555,   4577,   4599,   4621,   4643,   4665,   4687,   4709,   
4731,   4753,   4775,   4797,   4863,   4885,   4907,   4929,   4951,   4973,   4995,   5017,   5039,   5061,   5083,   5105,   
5127,   5149,   5171,   5193,   5215,   5237,   5259,   5281,   5347,   5369,   5391,   5413,   5435,   5457,   5479,   5501,   
5523,   5545,   5567,   5589,   5611,   5633,   5655,   5677,   5699,   5721,   5743,   5765,   5831,   5853,   5875,   5897,   
5919,   5941,   5963,   5985,   6007,   6029,   6051,   6073,   6095,   6117,   6139,   6161,   6183,   6205,   6227,   6249,   
6315,   6337,   6359,   6381,   6403,   6425,   6447,   6469,   6491,   6513,   6535,   6557,   6579,   6601,   6623,   6645,   
6667,   6689,   6711,   6733,   6799,   6821,   6843,   6865,   6887,   6909,   6931,   6953,   6975,   6997,   7019,   7041,   
7063,   7085,   7107,   7129,   7151,   7173,   7195,   7217,   7283,   7305,   7327,   7349,   7371,   7393,   7415,   7437,   
7459,   7481,   7503,   7525,   7547,   7569,   7591,   7613,   7635,   7657,   7679,   7701,   7767,   7789,   7811,   7833,   
7855,   7877,   7899,   7921,   7943,   7965,   7987,   8009,   8031,   8053,   8075,   8097,   8119,   8141,   8163,   8185,   
** ... 5 like lines cut

*****************************************************
*NSET, NSET=n2plus
528,   550,   572,   594,   616,   638,   660,   682,   704,   726,   748,   770,   792,   814,   836,   858,   
880,   902,   924,   946,   1012,   1034,   1056,   1078,   1100,   1122,   1144,   1166,   1188,   1210,   1232,   1254,   
1276,   1298,   1320,   1342,   1364,   1386,   1408,   1430,   1496,   1518,   1540,   1562,   1584,   1606,   1628,   1650,   
1672,   1694,   1716,   1738,   1760,   1782,   1804,   1826,   1848,   1870,   1892,   1914,   1980,   2002,   2024,   2046,   
2068,   2090,   2112,   2134,   2156,   2178,   2200,   2222,   2244,   2266,   2288,   2310,   2332,   2354,   2376,   2398,   
2464,   2486,   2508,   2530,   2552,   2574,   2596,   2618,   2640,   2662,   2684,   2706,   2728,   2750,   2772,   2794,   
2816,   2838,   2860,   2882,   2948,   2970,   2992,   3014,   3036,   3058,   3080,   3102,   3124,   3146,   3168,   3190,   
3212,   3234,   3256,   3278,   3300,   3322,   3344,   3366,   3432,   3454,   3476,   3498,   3520,   3542,   3564,   3586,   
3608,   3630,   3652,   3674,   3696,   3718,   3740,   3762,   3784,   3806,   3828,   3850,   3916,   3938,   3960,   3982,   
4004,   4026,   4048,   4070,   4092,   4114,   4136,   4158,   4180,   4202,   4224,   4246,   4268,   4290,   4312,   4334,   
4400,   4422,   4444,   4466,   4488,   4510,   4532,   4554,   4576,   4598,   4620,   4642,   4664,   4686,   4708,   4730,   
4752,   4774,   4796,   4818,   4884,   4906,   4928,   4950,   4972,   4994,   5016,   5038,   5060,   5082,   5104,   5126,   
5148,   5170,   5192,   5214,   5236,   5258,   5280,   5302,   5368,   5390,   5412,   5434,   5456,   5478,   5500,   5522,   
5544,   5566,   5588,   5610,   5632,   5654,   5676,   5698,   5720,   5742,   5764,   5786,   5852,   5874,   5896,   5918,   
5940,   5962,   5984,   6006,   6028,   6050,   6072,   6094,   6116,   6138,   6160,   6182,   6204,   6226,   6248,   6270,   
6336,   6358,   6380,   6402,   6424,   6446,   6468,   6490,   6512,   6534,   6556,   6578,   6600,   6622,   6644,   6666,   
6688,   6710,   6732,   6754,   6820,   6842,   6864,   6886,   6908,   6930,   6952,   6974,   6996,   7018,   7040,   7062,   
7084,   7106,   7128,   7150,   7172,   7194,   7216,   7238,   7304,   7326,   7348,   7370,   7392,   7414,   7436,   7458,   
7480,   7502,   7524,   7546,   7568,   7590,   7612,   7634,   7656,   7678,   7700,   7722,   7788,   7810,   7832,   7854,   
7876,   7898,   7920,   7942,   7964,   7986,   8008,   8030,   8052,   8074,   8096,   8118,   8140,   8162,   8184,   8206,   
** ... 5 like lines cut

*****************************************************
*NSET, NSET=n2minus
507,   529,   551,   573,   595,   617,   639,   661,   683,   705,   727,   749,   771,   793,   815,   837,   
859,   881,   903,   925,   991,   1013,   1035,   1057,   1079,   1101,   1123,   1145,   1167,   1189,   1211,   1233,   
1255,   1277,   1299,   1321,   1343,   1365,   1387,   1409,   1475,   1497,   1519,   1541,   1563,   1585,   1607,   1629,   
1651,   1673,   1695,   1717,   1739,   1761,   1783,   1805,   1827,   1849,   1871,   1893,   1959,   1981,   2003,   2025,   
2047,   2069,   2091,   2113,   2135,   2157,   2179,   2201,   2223,   2245,   2267,   2289,   2311,   2333,   2355,   2377,   
2443,   2465,   2487,   2509,   2531,   2553,   2575,   2597,   2619,   2641,   2663,   2685,   2707,   2729,   2751,   2773,   
2795,   2817,   2839,   2861,   2927,   2949,   2971,   2993,   3015,   3037,   3059,   3081,   3103,   3125,   3147,   3169,   
3191,   3213,   3235,   3257,   3279,   3301,   3323,   3345,   3411,   3433,   3455,   3477,   3499,   3521,   3543,   3565,   
3587,   3609,   3631,   3653,   3675,   3697,   3719,   3741,   3763,   3785,   3807,   3829,   3895,   3917,   3939,   3961,   
3983,   4005,   4027,   4049,   4071,   4093,   4115,   4137,   4159,   4181,   4203,   4225,   4247,   4269,   4291,   4313,   
4379,   4401,   4423,   4445,   4467,   4489,   4511,   4533,   4555,   4577,   4599,   4621,   4643,   4665,   4687,   4709,   
4731,   4753,   4775,   4797,   4863,   4885,   4907,   4929,   4951,   4973,   4995,   5017,   5039,   5061,   5083,   5105,   
5127,   5149,   5171,   5193,   5215,   5237,   5259,   5281,   5347,   5369,   5391,   5413,   5435,   5457,   5479,   5501,   
5523,   5545,   5567,   5589,   5611,   5633,   5655,   5677,   5699,   5721,   5743,   5765,   5831,   5853,   5875,   5897,   
5919,   5941,   5963,   5985,   6007,   6029,   6051,   6073,   6095,   6117,   6139,   6161,   6183,   6205,   6227,   6249,   
6315,   6337,   6359,   6381,   6403,   6425,   6447,   6469,   6491,   6513,   6535,   6557,   6579,   6601,   6623,   6645,   
6667,   6689,   6711,   6733,   6799,   6821,   6843,   6865,   6887,   6909,   6931,   6953,   6975,   6997,   7019,   7041,   
7063,   7085,   7107,   7129,   7151,   7173,   7195,   7217,   7283,   7305,   7327,   7349,   7371,   7393,   7415,   7437,   
7459,   7481,   7503,   7525,   7547,   7569,   7591,   7613,   7635,   7657,   7679,   7701,   7767,   7789,   7811,   7833,   
7855,   7877,   7899,   7921,   7943,   7965,   7987,   8009,   8031,   8053,   8075,   8097,   8119,   8141,   8163,   8185,   
** ... 5 like lines cut

*****************************************************
*NSET, NSET=n3minus
486,   487,   488,   489,   490,   491,   492,   493,   494,   495,   496,   497,   498,   499,   500,   501,   
502,   503,   504,   505,   970,   971,   972,   973,   974,   975,   976,   977,   978,   979,   980,   981,   
982,   983,   984,   985,   986,   987,   988,   989,   1454,   1455,   1456,   1457,   1458,   1459,   1460,   1461,   
1462,   1463,   1464,   1465,   1466,   1467,   1468,   1469,   1470,   1471,   1472,   1473,   1938,   1939,   1940,   1941,   
1942,   1943,   1944,   1945,   1946,   1947,   1948,   1949,   1950,   1951,   1952,   1953,   1954,   1955,   1956,   1957,   
2422,   2423,   2424,   2425,   2426,   2427,   2428,   2429,   2430,   2431,   2432,   2433,   2434,   2435,   2436,   2437,   
2438,   2439,   2440,   2441,   2906,   2907,   2908,   2909,   2910,   2911,   2912,   2913,   2914,   2915,   2916,   2917,   
2918,   2919,   2920,   2921,   2922,   2923,   2924,   2925,   3390,   3391,   3392,   3393,   3394,   3395,   3396,   3397,   
3398,   3399,   3400,   3401,   3402,   3403,   3404,   3405,   3406,   3407,   3408,   3409,   3874,   3875,   3876,   3877,   
3878,   3879,   3880,   3881,   3882,   3883,   3884,   3885,   3886,   3887,   3888,   3889,   3890,   3891,   3892,   3893,   
4358,   4359,   4360,   4361,   4362,   4363,   4364,   4365,   4366,   4367,   4368,   4369,   4370,   4371,   4372,   4373,   
4374,   4375,   4376,   4377,   4842,   4843,   4844,   4845,   4846,   4847,   4848,   4849,   4850,   4851,   4852,   4853,   
4854,   4855,   4856,   4857,   4858,   4859,   4860,   4861,   5326,   5327,   5328,   5329,   5330,   5331,   5332,   5333,   
5334,   5335,   5336,   5337,   5338,   5339,   5340,   5341,   5342,   5343,   5344,   5345,   5810,   5811,   5812,   5813,   
5814,   5815,   5816,   5817,   5818,   5819,   5820,   5821,   5822,   5823,   5824,   5825,   5826,   5827,   5828,   5829,   
6294,   6295,   6296,   6297,   6298,   6299,   6300,   6301,   6302,   6303,   6304,   6305,   6306,   6307,   6308,   6309,   
6310,   6311,   6312,   6313,   6778,   6779,   6780,   6781,   6782,   6783,   6784,   6785,   6786,   6787,   6788,   6789,   
6790,   6791,   6792,   6793,   6794,   6795,   6796,   6797,   7262,   7263,   7264,   7265,   7266,   7267,   7268,   7269,   
7270,   7271,   7272,   7273,   7274,   7275,   7276,   7277,   7278,   7279,   7280,   7281,   7746,   7747,   7748,   7749,   
7750,   7751,   7752,   7753,   7754,   7755,   7756,   7757,   7758,   7759,   7760,   7761,   7762,   7763,   7764,   7765,   
** ... 5 like lines cut

*****************************************************
*NSET, NSET=n3plus
948,   949,   950,   951,   952,   953,   954,   955,   956,   957,   958,   959,   960,   961,   962,   963,   
964,   965,   966,   967,   1432,   1433,   1434,   1435,   1436,   1437,   1438,   1439,   1440,   1441,   1442,   1443,   
1444,   1445,   1446,   1447,   1448,   1449,   1450,   1451,   1916,   1917,   1918,   1919,   1920,   1921,   1922,   1923,   
1924,   1925,   1926,   1927,   1928,   1929,   1930,   1931,   1932,   1933,   1934,   1935,   2400,   2401,   2402,   2403,   
2404,   2405,   2406,   2407,   2408,   2409,   2410,   2411,   2412,   2413,   2414,   2415,   2416,   2417,   2418,   2419,   
2884,   2885,   2886,   2887,   2888,   2889,   2890,   2891,   2892,   2893,   2894,   2895,   2896,   2897,   2898,   2899,   
2900,   2901,   2902,   2903,   3368,   3369,   3370,   3371,   3372,   3373,   3374,   3375,   3376,   3377,   3378,   3379,   
3380,   3381,   3382,   3383,   3384,   3385,   3386,   3387,   3852,   3853,   3854,   3855,   3856,   3857,   3858,   3859,   
3860,   3861,   3862,   3863,   3864,   3865,   3866,   3867,   3868,   3869,   3870,   3871,   4336,   4337,   4338,   4339,   
4340,   4341,   4342,   4343,   4344,   4345,   4346,   4347,   4348,   4349,   4350,   4351,   4352,   4353,   4354,   4355,   
4820,   4821,   4822,   4823,   4824,   4825,   4826,   4827,   4828,   4829,   4830,   4831,   4832,   4833,   4834,   4835,   
4836,   4837,   4838,   4839,   5304,   5305,   5306,   5307,   5308,   5309,   5310,   5311,   5312,   5313,   5314,   5315,   
5316,   5317,   5318,   5319,   5320,   5321,   5322,   5323,   5788,   5789,   5790,   5791,   5792,   5793,   5794,   5795,   
5796,   5797,   5798,   5799,   5800,   5801,   5802,   5803,   5804,   5805,   5806,   5807,   6272,   6273,   6274,   6275,   
6276,   6277,   6278,   6279,   6280,   6281,   6282,   6283,   6284,   6285,   6286,   6287,   6288,   6289,   6290,   6291,   
6756,   6757,   6758,   6759,   6760,   6761,   6762,   6763,   6764,   6765,   6766,   6767,   6768,   6769,   6770,   6771,   
6772,   6773,   6774,   6775,   7240,   7241,   7242,   7243,   7244,   7245,   7246,   7247,   7248,   7249,   7250,   7251,   
7252,   7253,   7254,   7255,   7256,   7257,   7258,   7259,   7724,   7725,   7726,   7727,   7728,   7729,   7730,   7731,   
7732,   7733,   7734,   7735,   7736,   7737,   7738,   7739,   7740,   7741,   7742,   7743,   8208,   8209,   8210,   8211,   
8212,   8213,   8214,   8215,   8216,   8217,   8218,   8219,   8220,   8221,   8222,   8223,   8224,   8225,   8226,   8227,   
** ... 5 like lines cut

*****************************************************
*NSET, NSET=n3minus_n1minus
2,   3,   4,   5,   6,   7,   8,   9,   10,   11,   12,   13,   14,   15,   16,   17,   
18,   19,   20,   21,   
*****************************************************
*NSET, NSET=n3minus_n1plus
10166,   10167,   10168,   10169,   10170,   10171,   10172,   10173,   10174,   10175,   10176,   10177,   10178,   10179,   10180,   10181,   
10182,   10183,   10184,   10185,   
*****************************************************
*NSET, NSET=n2minus_n3minus
485,   969,   1453,   1937,   2421,   2905,   3389,   3873,   4357,   4841,   5325,   5809,   6293,   6777,   7261,   7745,   
8229,   8713,   9197,   9681,   
*****************************************************
*NSET, NSET=n2plus_n3minus
506,   990,   1474,   1958,   2442,   2926,   3410,   3894,   4378,   4862,   5346,   5830,   6314,   6798,   7282,   7766,   
8250,   8734,   9218,   9702,   
*****************************************************
*NSET, NSET=n3plus_n1minus
464,   465,   466,   467,   468,   469,   470,   471,   472,   473,   474,   475,   476,   477,   478,   479,   
480,   481,   482,   483,   
*****************************************************
*NSET, NSET=n3plus_n1plus
10628,   10629,   10630,   10631,   10632,   10633,   10634,   10635,   10636,   10637,   10638,   10639,   10640,   10641,   10642,   10643,   
10644,   10645,   10646,   10647,   
*****************************************************
*NSET, NSET=n2minus_n3plus
947,   1431,   1915,   2399,   2883,   3367,   3851,   4335,   4819,   5303,   5787,   6271,   6755,   7239,   7723,   8207,   
8691,   9175,   9659,   10143,   
*****************************************************
*NSET, NSET=n2plus_n3plus
968,   1452,   1936,   2420,   2904,   3388,   3872,   4356,   4840,   5324,   5808,   6292,   6776,   7260,   7744,   8228,   
8712,   9196,   9680,   10164,   
*****************************************************
*NSET, NSET=n1plus_n2minus
10187,   10209,   10231,   10253,   10275,   10297,   10319,   10341,   10363,   10385,   10407,   10429,   10451,   10473,   10495,   10517,   
10539,   10561,   10583,   10605,   
*****************************************************
*NSET, NSET=n1plus_n2plus
10208,   10230,   10252,   10274,   10296,   10318,   10340,   10362,   10384,   10406,   10428,   10450,   10472,   10494,   10516,   10538,   
10560,   10582,   10604,   10626,   
*****************************************************
*NSET, NSET=n1minus_n2minus
23,   45,   67,   89,   111,   133,   155,   177,   199,   221,   243,   265,   287,   309,   331,   353,   
375,   397,   419,   441,   
*****************************************************
*NSET, NSET=n1minus_n2plus
44,   66,   88,   110,   132,   154,   176,   198,   220,   242,   264,   286,   308,   330,   352,   374,   
396,   418,   440,   462,   
*****************************************************
** Implement Periodic Boundary Conditions
*Equation
3
n1plus, 1, 1, n1minus, 1, -1, 10648, 1, -1
2
n1plus, 2, 1, n1minus, 2, -1
2
n1plus, 3, 1, n1minus, 3, -1
**
2
n2plus, 1, 1, n2minus, 1, -1
2
n2plus, 2, 1, n2minus, 2, -1
2
n2plus, 3, 1, n2minus, 3, -1
**
2
n3plus, 1, 1, n3minus, 1, -1
2
n3plus, 2, 1, n3minus, 2, -1
2
n3plus, 3, 1, n3minus, 3, -1
**
3
n1plus_n2plus, 1, 1, n1minus_n2plus, 1, -1, 10648, 1, -1
3
n1plus_n2minus, 1, 1, n1minus_n2minus, 1, -1, 10648, 1, -1
2
n1minus_n2plus, 1, 1, n1minus_n2minus, 1, -1
**
2
n1plus_n2plus, 2, 1, n1minus_n2plus, 2, -1
2
n1plus_n2minus, 2, 1, n1minus_n2minus, 2, -1
2
n1minus_n2plus, 2, 1, n1minus_n2minus, 2, -1
**
2
n1plus_n2plus, 3, 1, n1minus_n2plus, 3, -1
2
n1plus_n2minus, 3, 1, n1minus_n2minus, 3, -1
2
n1minus_n2plus, 3, 1, n1minus_n2minus, 3, -1
**
**
3
n3plus_n1plus, 1, 1, n3plus_n1minus, 1, -1, 10648, 1, -1
3
n3minus_n1plus, 1, 1, n3minus_n1minus, 1, -1, 10648, 1, -1
2
n3plus_n1minus, 1, 1, n3minus_n1minus, 1, -1
**
2
n3plus_n1plus, 2, 1, n3plus_n1minus, 2, -1
2
n3minus_n1plus, 2, 1, n3minus_n1minus, 2, -1
2
n3plus_n1minus, 2, 1, n3minus_n1minus, 2, -1
**
2
n3plus_n1plus, 3, 1, n3plus_n1minus, 3, -1
2
n3minus_n1plus, 3, 1, n3minus_n1minus, 3, -1
2
n3plus_n1minus, 3, 1, n3minus_n1minus, 3, -1
**
**
2
n2plus_n3plus, 1, 1, n2minus_n3plus, 1, -1
2
n2plus_n3minus, 1, 1, n2minus_n3minus, 1, -1
2
n2minus_n3plus, 1, 1, n2minus_n3minus, 1, -1
**
2
n2plus_n3plus, 2, 1, n2minus_n3plus, 2, -1
2
n2plus_n3minus, 2, 1, n2minus_n3minus, 2, -1
2
n2minus_n3plus, 2, 1, n2minus_n3minus, 2, -1
**
2
n2plus_n3plus, 3, 1, n2minus_n3plus, 3, -1
2
n2plus_n3minus, 3, 1, n2minus_n3minus, 3, -1
2
n2minus_n3plus, 3, 1, n2minus_n3minus, 3, -1
**** ----------------------------------------------------------------- 
** MATERIALS
**
*Solid Section, elset=elset1, material=material-1
1.,
*Material, name=material-1
*Elastic,type=isotropic
120, 0.3
** Solid (element 2 = elset2)
**
*Solid Section, elset=elset2, material=material-2
1.,
**
*Material, name=material-2
*Elastic,type=isotropic
80, 0.3
** ----------------------------------------------------------------
**     
** ----------------------------------------------------------------
** 
** STEP: Step-1
** 
*Step, name=Step-1
*Static
1., 1., 1e-05, 1.
** 
** BOUNDARY CONDITIONS
** 
** Name: BC-1 Type: Displacement/Rotation
*Boundary
**
1,1,3,0
463,1,3,0
22,1,3,0
484,1,3,0
10165,1,1,0.02
10627,1,1,0.02
10186,1,1,0.02
10648,1,1,0.02
10165,2,3,0
10627,2,3,0
10186,2,3,0
10648,2,3,0
** 
** OUTPUT REQUESTS
**
*output, field, frequency=0
**
*output, history, frequency=0
** 
*el print, summary=no, totals=yes
E
**
*End Step
