*Preprint, echo=NO, model=No, history=NO, contact=NO
*Heading
****************************************************
*node
1, 0, 0, 0 
1723, 0, 0, 40 
42, 0, 40, 0 
1764, 0, 40, 40 
72325, 40, 0, 0 
74047, 40, 0, 40 
72366, 40, 40, 0 
74088, 40, 40, 40 
*****************************************************
*NSET, NSET=A 
 1 
*NSET, NSET=B 
 1723 
*NSET, NSET=C 
 42 
*NSET, NSET=D 
 1764 
*NSET, NSET=E 
 72325 
*NSET, NSET=F 
 74047 
*NSET, NSET=G 
 72366 
*NSET, NSET=H 
 74088 
****************************************************
*Nfill, Nset=AB
A, B, 41, 42
*Nfill, Nset=CD
C, D, 41, 42
*Nfill, Nset=ABCD
AB, CD, 41, 1
*Nfill, Nset=EF
E, F, 41, 42
*Nfill, Nset=GH
G, H, 41, 42
*Nfill, Nset=EFGH
EF, GH, 41, 1
*Nfill, Nset=ABCDEFGH
ABCD, EFGH, 41, 1764
****************************************************
*Nfill, Nset=BD
B, D, 41, 1
*Nfill, Nset=FH
F, H, 41, 1
*Nfill, Nset=BDFH
BD, FH, 41, 1764
*****************************************************
** Bottom Face Node Set
*Nfill, Nset=AC
A, C, 41, 1
*Nfill, Nset=EG
E, G, 41, 1
*Nfill, Nset=ACEG
AC, EG, 41, 1764
*****************************************************
*ELEMENT, TYPE=C3D8
1,1,2,44,43,1765,1766,1808,1807
*****************************************************
*ELGEN, elset=allel
1,41,1,1,41,42,41,41,1764,1681
*****************************************************
*ELSET, ELSET=elset1
5,   8,   9,   19,   20,   21,   35,   40,   41,   42,   43,   44,   45,   48,   49,   62,   
68,   69,   70,   76,   80,   81,   82,   85,   86,   89,   90,   91,   100,   101,   109,   110,   
111,   112,   113,   116,   117,   122,   123,   124,   130,   137,   138,   140,   141,   142,   147,   148,   
150,   151,   152,   153,   154,   156,   157,   158,   164,   165,   178,   179,   181,   182,   183,   184,   
185,   187,   188,   190,   191,   192,   193,   194,   197,   198,   205,   218,   219,   220,   222,   223,   
224,   225,   227,   228,   231,   232,   233,   234,   239,   242,   252,   259,   260,   261,   263,   264,   
265,   272,   279,   280,   281,   282,   283,   286,   288,   289,   290,   291,   292,   293,   300,   301,   
302,   304,   305,   306,   307,   319,   320,   321,   322,   323,   324,   325,   326,   327,   328,   329,   
330,   331,   332,   333,   334,   340,   341,   342,   345,   346,   347,   351,   353,   354,   355,   356,   
358,   359,   360,   361,   362,   364,   365,   366,   369,   370,   371,   372,   373,   374,   375,   380,   
381,   382,   383,   386,   387,   390,   391,   392,   393,   394,   395,   396,   404,   405,   406,   411,   
412,   413,   414,   415,   416,   422,   423,   424,   425,   426,   427,   429,   430,   432,   433,   434,   
435,   436,   444,   445,   448,   449,   452,   453,   454,   455,   456,   457,   463,   464,   466,   467,   
468,   470,   471,   473,   474,   475,   476,   481,   482,   484,   485,   486,   489,   490,   494,   495,   
496,   497,   504,   521,   522,   523,   525,   526,   527,   528,   529,   530,   531,   532,   533,   535,   
536,   537,   544,   562,   563,   564,   566,   567,   568,   569,   570,   571,   572,   573,   576,   577,   
581,   593,   603,   607,   608,   609,   610,   612,   613,   614,   618,   623,   629,   630,   634,   643,   
644,   649,   650,   651,   654,   655,   656,   657,   658,   660,   661,   664,   670,   671,   676,   678,   
679,   680,   683,   684,   690,   691,   692,   697,   698,   699,   702,   714,   715,   716,   717,   719,   
720,   721,   722,   723,   724,   725,   738,   739,   740,   745,   748,   753,   754,   755,   756,   757,   
** ... 2052 like lines cut
*****************************************************
*ELSET, ELSET=elset2
1,   2,   3,   4,   6,   7,   10,   11,   12,   13,   14,   15,   16,   17,   18,   22,   
23,   24,   25,   26,   27,   28,   29,   30,   31,   32,   33,   34,   36,   37,   38,   39,   
46,   47,   50,   51,   52,   53,   54,   55,   56,   57,   58,   59,   60,   61,   63,   64,   
65,   66,   67,   71,   72,   73,   74,   75,   77,   78,   79,   83,   84,   87,   88,   92,   
93,   94,   95,   96,   97,   98,   99,   102,   103,   104,   105,   106,   107,   108,   114,   115,   
118,   119,   120,   121,   125,   126,   127,   128,   129,   131,   132,   133,   134,   135,   136,   139,   
143,   144,   145,   146,   149,   155,   159,   160,   161,   162,   163,   166,   167,   168,   169,   170,   
171,   172,   173,   174,   175,   176,   177,   180,   186,   189,   195,   196,   199,   200,   201,   202,   
203,   204,   206,   207,   208,   209,   210,   211,   212,   213,   214,   215,   216,   217,   221,   226,   
229,   230,   235,   236,   237,   238,   240,   241,   243,   244,   245,   246,   247,   248,   249,   250,   
251,   253,   254,   255,   256,   257,   258,   262,   266,   267,   268,   269,   270,   271,   273,   274,   
275,   276,   277,   278,   284,   285,   287,   294,   295,   296,   297,   298,   299,   303,   308,   309,   
310,   311,   312,   313,   314,   315,   316,   317,   318,   335,   336,   337,   338,   339,   343,   344,   
348,   349,   350,   352,   357,   363,   367,   368,   376,   377,   378,   379,   384,   385,   388,   389,   
397,   398,   399,   400,   401,   402,   403,   407,   408,   409,   410,   417,   418,   419,   420,   421,   
428,   431,   437,   438,   439,   440,   441,   442,   443,   446,   447,   450,   451,   458,   459,   460,   
461,   462,   465,   469,   472,   477,   478,   479,   480,   483,   487,   488,   491,   492,   493,   498,   
499,   500,   501,   502,   503,   505,   506,   507,   508,   509,   510,   511,   512,   513,   514,   515,   
516,   517,   518,   519,   520,   524,   534,   538,   539,   540,   541,   542,   543,   545,   546,   547,   
548,   549,   550,   551,   552,   553,   554,   555,   556,   557,   558,   559,   560,   561,   565,   574,   
** ... 2216 like lines cut
*****************************************************
*NSET, NSET=n1plus
72368,   72369,   72370,   72371,   72372,   72373,   72374,   72375,   72376,   72377,   72378,   72379,   72380,   72381,   72382,   72383,   
72384,   72385,   72386,   72387,   72388,   72389,   72390,   72391,   72392,   72393,   72394,   72395,   72396,   72397,   72398,   72399,   
72400,   72401,   72402,   72403,   72404,   72405,   72406,   72407,   72410,   72411,   72412,   72413,   72414,   72415,   72416,   72417,   
72418,   72419,   72420,   72421,   72422,   72423,   72424,   72425,   72426,   72427,   72428,   72429,   72430,   72431,   72432,   72433,   
72434,   72435,   72436,   72437,   72438,   72439,   72440,   72441,   72442,   72443,   72444,   72445,   72446,   72447,   72448,   72449,   
72452,   72453,   72454,   72455,   72456,   72457,   72458,   72459,   72460,   72461,   72462,   72463,   72464,   72465,   72466,   72467,   
72468,   72469,   72470,   72471,   72472,   72473,   72474,   72475,   72476,   72477,   72478,   72479,   72480,   72481,   72482,   72483,   
72484,   72485,   72486,   72487,   72488,   72489,   72490,   72491,   72494,   72495,   72496,   72497,   72498,   72499,   72500,   72501,   
72502,   72503,   72504,   72505,   72506,   72507,   72508,   72509,   72510,   72511,   72512,   72513,   72514,   72515,   72516,   72517,   
72518,   72519,   72520,   72521,   72522,   72523,   72524,   72525,   72526,   72527,   72528,   72529,   72530,   72531,   72532,   72533,   
72536,   72537,   72538,   72539,   72540,   72541,   72542,   72543,   72544,   72545,   72546,   72547,   72548,   72549,   72550,   72551,   
72552,   72553,   72554,   72555,   72556,   72557,   72558,   72559,   72560,   72561,   72562,   72563,   72564,   72565,   72566,   72567,   
72568,   72569,   72570,   72571,   72572,   72573,   72574,   72575,   72578,   72579,   72580,   72581,   72582,   72583,   72584,   72585,   
72586,   72587,   72588,   72589,   72590,   72591,   72592,   72593,   72594,   72595,   72596,   72597,   72598,   72599,   72600,   72601,   
72602,   72603,   72604,   72605,   72606,   72607,   72608,   72609,   72610,   72611,   72612,   72613,   72614,   72615,   72616,   72617,   
72620,   72621,   72622,   72623,   72624,   72625,   72626,   72627,   72628,   72629,   72630,   72631,   72632,   72633,   72634,   72635,   
72636,   72637,   72638,   72639,   72640,   72641,   72642,   72643,   72644,   72645,   72646,   72647,   72648,   72649,   72650,   72651,   
72652,   72653,   72654,   72655,   72656,   72657,   72658,   72659,   72662,   72663,   72664,   72665,   72666,   72667,   72668,   72669,   
72670,   72671,   72672,   72673,   72674,   72675,   72676,   72677,   72678,   72679,   72680,   72681,   72682,   72683,   72684,   72685,   
72686,   72687,   72688,   72689,   72690,   72691,   72692,   72693,   72694,   72695,   72696,   72697,   72698,   72699,   72700,   72701,   
** ... 80 like lines cut

*****************************************************
*NSET, NSET=n1minus
44,   45,   46,   47,   48,   49,   50,   51,   52,   53,   54,   55,   56,   57,   58,   59,   
60,   61,   62,   63,   64,   65,   66,   67,   68,   69,   70,   71,   72,   73,   74,   75,   
76,   77,   78,   79,   80,   81,   82,   83,   86,   87,   88,   89,   90,   91,   92,   93,   
94,   95,   96,   97,   98,   99,   100,   101,   102,   103,   104,   105,   106,   107,   108,   109,   
110,   111,   112,   113,   114,   115,   116,   117,   118,   119,   120,   121,   122,   123,   124,   125,   
128,   129,   130,   131,   132,   133,   134,   135,   136,   137,   138,   139,   140,   141,   142,   143,   
144,   145,   146,   147,   148,   149,   150,   151,   152,   153,   154,   155,   156,   157,   158,   159,   
160,   161,   162,   163,   164,   165,   166,   167,   170,   171,   172,   173,   174,   175,   176,   177,   
178,   179,   180,   181,   182,   183,   184,   185,   186,   187,   188,   189,   190,   191,   192,   193,   
194,   195,   196,   197,   198,   199,   200,   201,   202,   203,   204,   205,   206,   207,   208,   209,   
212,   213,   214,   215,   216,   217,   218,   219,   220,   221,   222,   223,   224,   225,   226,   227,   
228,   229,   230,   231,   232,   233,   234,   235,   236,   237,   238,   239,   240,   241,   242,   243,   
244,   245,   246,   247,   248,   249,   250,   251,   254,   255,   256,   257,   258,   259,   260,   261,   
262,   263,   264,   265,   266,   267,   268,   269,   270,   271,   272,   273,   274,   275,   276,   277,   
278,   279,   280,   281,   282,   283,   284,   285,   286,   287,   288,   289,   290,   291,   292,   293,   
296,   297,   298,   299,   300,   301,   302,   303,   304,   305,   306,   307,   308,   309,   310,   311,   
312,   313,   314,   315,   316,   317,   318,   319,   320,   321,   322,   323,   324,   325,   326,   327,   
328,   329,   330,   331,   332,   333,   334,   335,   338,   339,   340,   341,   342,   343,   344,   345,   
346,   347,   348,   349,   350,   351,   352,   353,   354,   355,   356,   357,   358,   359,   360,   361,   
362,   363,   364,   365,   366,   367,   368,   369,   370,   371,   372,   373,   374,   375,   376,   377,   
** ... 80 like lines cut

*****************************************************
*NSET, NSET=n2minus
1807,   1849,   1891,   1933,   1975,   2017,   2059,   2101,   2143,   2185,   2227,   2269,   2311,   2353,   2395,   2437,   
2479,   2521,   2563,   2605,   2647,   2689,   2731,   2773,   2815,   2857,   2899,   2941,   2983,   3025,   3067,   3109,   
3151,   3193,   3235,   3277,   3319,   3361,   3403,   3445,   3571,   3613,   3655,   3697,   3739,   3781,   3823,   3865,   
3907,   3949,   3991,   4033,   4075,   4117,   4159,   4201,   4243,   4285,   4327,   4369,   4411,   4453,   4495,   4537,   
4579,   4621,   4663,   4705,   4747,   4789,   4831,   4873,   4915,   4957,   4999,   5041,   5083,   5125,   5167,   5209,   
5335,   5377,   5419,   5461,   5503,   5545,   5587,   5629,   5671,   5713,   5755,   5797,   5839,   5881,   5923,   5965,   
6007,   6049,   6091,   6133,   6175,   6217,   6259,   6301,   6343,   6385,   6427,   6469,   6511,   6553,   6595,   6637,   
6679,   6721,   6763,   6805,   6847,   6889,   6931,   6973,   7099,   7141,   7183,   7225,   7267,   7309,   7351,   7393,   
7435,   7477,   7519,   7561,   7603,   7645,   7687,   7729,   7771,   7813,   7855,   7897,   7939,   7981,   8023,   8065,   
8107,   8149,   8191,   8233,   8275,   8317,   8359,   8401,   8443,   8485,   8527,   8569,   8611,   8653,   8695,   8737,   
8863,   8905,   8947,   8989,   9031,   9073,   9115,   9157,   9199,   9241,   9283,   9325,   9367,   9409,   9451,   9493,   
9535,   9577,   9619,   9661,   9703,   9745,   9787,   9829,   9871,   9913,   9955,   9997,   10039,   10081,   10123,   10165,   
10207,   10249,   10291,   10333,   10375,   10417,   10459,   10501,   10627,   10669,   10711,   10753,   10795,   10837,   10879,   10921,   
10963,   11005,   11047,   11089,   11131,   11173,   11215,   11257,   11299,   11341,   11383,   11425,   11467,   11509,   11551,   11593,   
11635,   11677,   11719,   11761,   11803,   11845,   11887,   11929,   11971,   12013,   12055,   12097,   12139,   12181,   12223,   12265,   
12391,   12433,   12475,   12517,   12559,   12601,   12643,   12685,   12727,   12769,   12811,   12853,   12895,   12937,   12979,   13021,   
13063,   13105,   13147,   13189,   13231,   13273,   13315,   13357,   13399,   13441,   13483,   13525,   13567,   13609,   13651,   13693,   
13735,   13777,   13819,   13861,   13903,   13945,   13987,   14029,   14155,   14197,   14239,   14281,   14323,   14365,   14407,   14449,   
14491,   14533,   14575,   14617,   14659,   14701,   14743,   14785,   14827,   14869,   14911,   14953,   14995,   15037,   15079,   15121,   
15163,   15205,   15247,   15289,   15331,   15373,   15415,   15457,   15499,   15541,   15583,   15625,   15667,   15709,   15751,   15793,   
** ... 80 like lines cut

*****************************************************
*NSET, NSET=n2plus
1848,   1890,   1932,   1974,   2016,   2058,   2100,   2142,   2184,   2226,   2268,   2310,   2352,   2394,   2436,   2478,   
2520,   2562,   2604,   2646,   2688,   2730,   2772,   2814,   2856,   2898,   2940,   2982,   3024,   3066,   3108,   3150,   
3192,   3234,   3276,   3318,   3360,   3402,   3444,   3486,   3612,   3654,   3696,   3738,   3780,   3822,   3864,   3906,   
3948,   3990,   4032,   4074,   4116,   4158,   4200,   4242,   4284,   4326,   4368,   4410,   4452,   4494,   4536,   4578,   
4620,   4662,   4704,   4746,   4788,   4830,   4872,   4914,   4956,   4998,   5040,   5082,   5124,   5166,   5208,   5250,   
5376,   5418,   5460,   5502,   5544,   5586,   5628,   5670,   5712,   5754,   5796,   5838,   5880,   5922,   5964,   6006,   
6048,   6090,   6132,   6174,   6216,   6258,   6300,   6342,   6384,   6426,   6468,   6510,   6552,   6594,   6636,   6678,   
6720,   6762,   6804,   6846,   6888,   6930,   6972,   7014,   7140,   7182,   7224,   7266,   7308,   7350,   7392,   7434,   
7476,   7518,   7560,   7602,   7644,   7686,   7728,   7770,   7812,   7854,   7896,   7938,   7980,   8022,   8064,   8106,   
8148,   8190,   8232,   8274,   8316,   8358,   8400,   8442,   8484,   8526,   8568,   8610,   8652,   8694,   8736,   8778,   
8904,   8946,   8988,   9030,   9072,   9114,   9156,   9198,   9240,   9282,   9324,   9366,   9408,   9450,   9492,   9534,   
9576,   9618,   9660,   9702,   9744,   9786,   9828,   9870,   9912,   9954,   9996,   10038,   10080,   10122,   10164,   10206,   
10248,   10290,   10332,   10374,   10416,   10458,   10500,   10542,   10668,   10710,   10752,   10794,   10836,   10878,   10920,   10962,   
11004,   11046,   11088,   11130,   11172,   11214,   11256,   11298,   11340,   11382,   11424,   11466,   11508,   11550,   11592,   11634,   
11676,   11718,   11760,   11802,   11844,   11886,   11928,   11970,   12012,   12054,   12096,   12138,   12180,   12222,   12264,   12306,   
12432,   12474,   12516,   12558,   12600,   12642,   12684,   12726,   12768,   12810,   12852,   12894,   12936,   12978,   13020,   13062,   
13104,   13146,   13188,   13230,   13272,   13314,   13356,   13398,   13440,   13482,   13524,   13566,   13608,   13650,   13692,   13734,   
13776,   13818,   13860,   13902,   13944,   13986,   14028,   14070,   14196,   14238,   14280,   14322,   14364,   14406,   14448,   14490,   
14532,   14574,   14616,   14658,   14700,   14742,   14784,   14826,   14868,   14910,   14952,   14994,   15036,   15078,   15120,   15162,   
15204,   15246,   15288,   15330,   15372,   15414,   15456,   15498,   15540,   15582,   15624,   15666,   15708,   15750,   15792,   15834,   
** ... 80 like lines cut

*****************************************************
*NSET, NSET=n2minus
1807,   1849,   1891,   1933,   1975,   2017,   2059,   2101,   2143,   2185,   2227,   2269,   2311,   2353,   2395,   2437,   
2479,   2521,   2563,   2605,   2647,   2689,   2731,   2773,   2815,   2857,   2899,   2941,   2983,   3025,   3067,   3109,   
3151,   3193,   3235,   3277,   3319,   3361,   3403,   3445,   3571,   3613,   3655,   3697,   3739,   3781,   3823,   3865,   
3907,   3949,   3991,   4033,   4075,   4117,   4159,   4201,   4243,   4285,   4327,   4369,   4411,   4453,   4495,   4537,   
4579,   4621,   4663,   4705,   4747,   4789,   4831,   4873,   4915,   4957,   4999,   5041,   5083,   5125,   5167,   5209,   
5335,   5377,   5419,   5461,   5503,   5545,   5587,   5629,   5671,   5713,   5755,   5797,   5839,   5881,   5923,   5965,   
6007,   6049,   6091,   6133,   6175,   6217,   6259,   6301,   6343,   6385,   6427,   6469,   6511,   6553,   6595,   6637,   
6679,   6721,   6763,   6805,   6847,   6889,   6931,   6973,   7099,   7141,   7183,   7225,   7267,   7309,   7351,   7393,   
7435,   7477,   7519,   7561,   7603,   7645,   7687,   7729,   7771,   7813,   7855,   7897,   7939,   7981,   8023,   8065,   
8107,   8149,   8191,   8233,   8275,   8317,   8359,   8401,   8443,   8485,   8527,   8569,   8611,   8653,   8695,   8737,   
8863,   8905,   8947,   8989,   9031,   9073,   9115,   9157,   9199,   9241,   9283,   9325,   9367,   9409,   9451,   9493,   
9535,   9577,   9619,   9661,   9703,   9745,   9787,   9829,   9871,   9913,   9955,   9997,   10039,   10081,   10123,   10165,   
10207,   10249,   10291,   10333,   10375,   10417,   10459,   10501,   10627,   10669,   10711,   10753,   10795,   10837,   10879,   10921,   
10963,   11005,   11047,   11089,   11131,   11173,   11215,   11257,   11299,   11341,   11383,   11425,   11467,   11509,   11551,   11593,   
11635,   11677,   11719,   11761,   11803,   11845,   11887,   11929,   11971,   12013,   12055,   12097,   12139,   12181,   12223,   12265,   
12391,   12433,   12475,   12517,   12559,   12601,   12643,   12685,   12727,   12769,   12811,   12853,   12895,   12937,   12979,   13021,   
13063,   13105,   13147,   13189,   13231,   13273,   13315,   13357,   13399,   13441,   13483,   13525,   13567,   13609,   13651,   13693,   
13735,   13777,   13819,   13861,   13903,   13945,   13987,   14029,   14155,   14197,   14239,   14281,   14323,   14365,   14407,   14449,   
14491,   14533,   14575,   14617,   14659,   14701,   14743,   14785,   14827,   14869,   14911,   14953,   14995,   15037,   15079,   15121,   
15163,   15205,   15247,   15289,   15331,   15373,   15415,   15457,   15499,   15541,   15583,   15625,   15667,   15709,   15751,   15793,   
** ... 80 like lines cut

*****************************************************
*NSET, NSET=n3minus
1766,   1767,   1768,   1769,   1770,   1771,   1772,   1773,   1774,   1775,   1776,   1777,   1778,   1779,   1780,   1781,   
1782,   1783,   1784,   1785,   1786,   1787,   1788,   1789,   1790,   1791,   1792,   1793,   1794,   1795,   1796,   1797,   
1798,   1799,   1800,   1801,   1802,   1803,   1804,   1805,   3530,   3531,   3532,   3533,   3534,   3535,   3536,   3537,   
3538,   3539,   3540,   3541,   3542,   3543,   3544,   3545,   3546,   3547,   3548,   3549,   3550,   3551,   3552,   3553,   
3554,   3555,   3556,   3557,   3558,   3559,   3560,   3561,   3562,   3563,   3564,   3565,   3566,   3567,   3568,   3569,   
5294,   5295,   5296,   5297,   5298,   5299,   5300,   5301,   5302,   5303,   5304,   5305,   5306,   5307,   5308,   5309,   
5310,   5311,   5312,   5313,   5314,   5315,   5316,   5317,   5318,   5319,   5320,   5321,   5322,   5323,   5324,   5325,   
5326,   5327,   5328,   5329,   5330,   5331,   5332,   5333,   7058,   7059,   7060,   7061,   7062,   7063,   7064,   7065,   
7066,   7067,   7068,   7069,   7070,   7071,   7072,   7073,   7074,   7075,   7076,   7077,   7078,   7079,   7080,   7081,   
7082,   7083,   7084,   7085,   7086,   7087,   7088,   7089,   7090,   7091,   7092,   7093,   7094,   7095,   7096,   7097,   
8822,   8823,   8824,   8825,   8826,   8827,   8828,   8829,   8830,   8831,   8832,   8833,   8834,   8835,   8836,   8837,   
8838,   8839,   8840,   8841,   8842,   8843,   8844,   8845,   8846,   8847,   8848,   8849,   8850,   8851,   8852,   8853,   
8854,   8855,   8856,   8857,   8858,   8859,   8860,   8861,   10586,   10587,   10588,   10589,   10590,   10591,   10592,   10593,   
10594,   10595,   10596,   10597,   10598,   10599,   10600,   10601,   10602,   10603,   10604,   10605,   10606,   10607,   10608,   10609,   
10610,   10611,   10612,   10613,   10614,   10615,   10616,   10617,   10618,   10619,   10620,   10621,   10622,   10623,   10624,   10625,   
12350,   12351,   12352,   12353,   12354,   12355,   12356,   12357,   12358,   12359,   12360,   12361,   12362,   12363,   12364,   12365,   
12366,   12367,   12368,   12369,   12370,   12371,   12372,   12373,   12374,   12375,   12376,   12377,   12378,   12379,   12380,   12381,   
12382,   12383,   12384,   12385,   12386,   12387,   12388,   12389,   14114,   14115,   14116,   14117,   14118,   14119,   14120,   14121,   
14122,   14123,   14124,   14125,   14126,   14127,   14128,   14129,   14130,   14131,   14132,   14133,   14134,   14135,   14136,   14137,   
14138,   14139,   14140,   14141,   14142,   14143,   14144,   14145,   14146,   14147,   14148,   14149,   14150,   14151,   14152,   14153,   
** ... 80 like lines cut

*****************************************************
*NSET, NSET=n3plus
3488,   3489,   3490,   3491,   3492,   3493,   3494,   3495,   3496,   3497,   3498,   3499,   3500,   3501,   3502,   3503,   
3504,   3505,   3506,   3507,   3508,   3509,   3510,   3511,   3512,   3513,   3514,   3515,   3516,   3517,   3518,   3519,   
3520,   3521,   3522,   3523,   3524,   3525,   3526,   3527,   5252,   5253,   5254,   5255,   5256,   5257,   5258,   5259,   
5260,   5261,   5262,   5263,   5264,   5265,   5266,   5267,   5268,   5269,   5270,   5271,   5272,   5273,   5274,   5275,   
5276,   5277,   5278,   5279,   5280,   5281,   5282,   5283,   5284,   5285,   5286,   5287,   5288,   5289,   5290,   5291,   
7016,   7017,   7018,   7019,   7020,   7021,   7022,   7023,   7024,   7025,   7026,   7027,   7028,   7029,   7030,   7031,   
7032,   7033,   7034,   7035,   7036,   7037,   7038,   7039,   7040,   7041,   7042,   7043,   7044,   7045,   7046,   7047,   
7048,   7049,   7050,   7051,   7052,   7053,   7054,   7055,   8780,   8781,   8782,   8783,   8784,   8785,   8786,   8787,   
8788,   8789,   8790,   8791,   8792,   8793,   8794,   8795,   8796,   8797,   8798,   8799,   8800,   8801,   8802,   8803,   
8804,   8805,   8806,   8807,   8808,   8809,   8810,   8811,   8812,   8813,   8814,   8815,   8816,   8817,   8818,   8819,   
10544,   10545,   10546,   10547,   10548,   10549,   10550,   10551,   10552,   10553,   10554,   10555,   10556,   10557,   10558,   10559,   
10560,   10561,   10562,   10563,   10564,   10565,   10566,   10567,   10568,   10569,   10570,   10571,   10572,   10573,   10574,   10575,   
10576,   10577,   10578,   10579,   10580,   10581,   10582,   10583,   12308,   12309,   12310,   12311,   12312,   12313,   12314,   12315,   
12316,   12317,   12318,   12319,   12320,   12321,   12322,   12323,   12324,   12325,   12326,   12327,   12328,   12329,   12330,   12331,   
12332,   12333,   12334,   12335,   12336,   12337,   12338,   12339,   12340,   12341,   12342,   12343,   12344,   12345,   12346,   12347,   
14072,   14073,   14074,   14075,   14076,   14077,   14078,   14079,   14080,   14081,   14082,   14083,   14084,   14085,   14086,   14087,   
14088,   14089,   14090,   14091,   14092,   14093,   14094,   14095,   14096,   14097,   14098,   14099,   14100,   14101,   14102,   14103,   
14104,   14105,   14106,   14107,   14108,   14109,   14110,   14111,   15836,   15837,   15838,   15839,   15840,   15841,   15842,   15843,   
15844,   15845,   15846,   15847,   15848,   15849,   15850,   15851,   15852,   15853,   15854,   15855,   15856,   15857,   15858,   15859,   
15860,   15861,   15862,   15863,   15864,   15865,   15866,   15867,   15868,   15869,   15870,   15871,   15872,   15873,   15874,   15875,   
** ... 80 like lines cut

*****************************************************
*NSET, NSET=n3minus_n1minus
2,   3,   4,   5,   6,   7,   8,   9,   10,   11,   12,   13,   14,   15,   16,   17,   
18,   19,   20,   21,   22,   23,   24,   25,   26,   27,   28,   29,   30,   31,   32,   33,   
34,   35,   36,   37,   38,   39,   40,   41,   
*****************************************************
*NSET, NSET=n3minus_n1plus
72326,   72327,   72328,   72329,   72330,   72331,   72332,   72333,   72334,   72335,   72336,   72337,   72338,   72339,   72340,   72341,   
72342,   72343,   72344,   72345,   72346,   72347,   72348,   72349,   72350,   72351,   72352,   72353,   72354,   72355,   72356,   72357,   
72358,   72359,   72360,   72361,   72362,   72363,   72364,   72365,   
*****************************************************
*NSET, NSET=n2minus_n3minus
1765,   3529,   5293,   7057,   8821,   10585,   12349,   14113,   15877,   17641,   19405,   21169,   22933,   24697,   26461,   28225,   
29989,   31753,   33517,   35281,   37045,   38809,   40573,   42337,   44101,   45865,   47629,   49393,   51157,   52921,   54685,   56449,   
58213,   59977,   61741,   63505,   65269,   67033,   68797,   70561,   
*****************************************************
*NSET, NSET=n2plus_n3minus
1806,   3570,   5334,   7098,   8862,   10626,   12390,   14154,   15918,   17682,   19446,   21210,   22974,   24738,   26502,   28266,   
30030,   31794,   33558,   35322,   37086,   38850,   40614,   42378,   44142,   45906,   47670,   49434,   51198,   52962,   54726,   56490,   
58254,   60018,   61782,   63546,   65310,   67074,   68838,   70602,   
*****************************************************
*NSET, NSET=n3plus_n1minus
1724,   1725,   1726,   1727,   1728,   1729,   1730,   1731,   1732,   1733,   1734,   1735,   1736,   1737,   1738,   1739,   
1740,   1741,   1742,   1743,   1744,   1745,   1746,   1747,   1748,   1749,   1750,   1751,   1752,   1753,   1754,   1755,   
1756,   1757,   1758,   1759,   1760,   1761,   1762,   1763,   
*****************************************************
*NSET, NSET=n3plus_n1plus
74048,   74049,   74050,   74051,   74052,   74053,   74054,   74055,   74056,   74057,   74058,   74059,   74060,   74061,   74062,   74063,   
74064,   74065,   74066,   74067,   74068,   74069,   74070,   74071,   74072,   74073,   74074,   74075,   74076,   74077,   74078,   74079,   
74080,   74081,   74082,   74083,   74084,   74085,   74086,   74087,   
*****************************************************
*NSET, NSET=n2minus_n3plus
3487,   5251,   7015,   8779,   10543,   12307,   14071,   15835,   17599,   19363,   21127,   22891,   24655,   26419,   28183,   29947,   
31711,   33475,   35239,   37003,   38767,   40531,   42295,   44059,   45823,   47587,   49351,   51115,   52879,   54643,   56407,   58171,   
59935,   61699,   63463,   65227,   66991,   68755,   70519,   72283,   
*****************************************************
*NSET, NSET=n2plus_n3plus
3528,   5292,   7056,   8820,   10584,   12348,   14112,   15876,   17640,   19404,   21168,   22932,   24696,   26460,   28224,   29988,   
31752,   33516,   35280,   37044,   38808,   40572,   42336,   44100,   45864,   47628,   49392,   51156,   52920,   54684,   56448,   58212,   
59976,   61740,   63504,   65268,   67032,   68796,   70560,   72324,   
*****************************************************
*NSET, NSET=n1plus_n2minus
72367,   72409,   72451,   72493,   72535,   72577,   72619,   72661,   72703,   72745,   72787,   72829,   72871,   72913,   72955,   72997,   
73039,   73081,   73123,   73165,   73207,   73249,   73291,   73333,   73375,   73417,   73459,   73501,   73543,   73585,   73627,   73669,   
73711,   73753,   73795,   73837,   73879,   73921,   73963,   74005,   
*****************************************************
*NSET, NSET=n1plus_n2plus
72408,   72450,   72492,   72534,   72576,   72618,   72660,   72702,   72744,   72786,   72828,   72870,   72912,   72954,   72996,   73038,   
73080,   73122,   73164,   73206,   73248,   73290,   73332,   73374,   73416,   73458,   73500,   73542,   73584,   73626,   73668,   73710,   
73752,   73794,   73836,   73878,   73920,   73962,   74004,   74046,   
*****************************************************
*NSET, NSET=n1minus_n2minus
43,   85,   127,   169,   211,   253,   295,   337,   379,   421,   463,   505,   547,   589,   631,   673,   
715,   757,   799,   841,   883,   925,   967,   1009,   1051,   1093,   1135,   1177,   1219,   1261,   1303,   1345,   
1387,   1429,   1471,   1513,   1555,   1597,   1639,   1681,   
*****************************************************
*NSET, NSET=n1minus_n2plus
84,   126,   168,   210,   252,   294,   336,   378,   420,   462,   504,   546,   588,   630,   672,   714,   
756,   798,   840,   882,   924,   966,   1008,   1050,   1092,   1134,   1176,   1218,   1260,   1302,   1344,   1386,   
1428,   1470,   1512,   1554,   1596,   1638,   1680,   1722,   
*****************************************************
** Implement Periodic Boundary Conditions
*Equation
3
n1plus, 1, 1, n1minus, 1, -1, 74088, 1, -1
2
n1plus, 2, 1, n1minus, 2, -1
2
n1plus, 3, 1, n1minus, 3, -1
**
2
n2plus, 1, 1, n2minus, 1, -1
2
n2plus, 2, 1, n2minus, 2, -1
2
n2plus, 3, 1, n2minus, 3, -1
**
2
n3plus, 1, 1, n3minus, 1, -1
2
n3plus, 2, 1, n3minus, 2, -1
2
n3plus, 3, 1, n3minus, 3, -1
**
3
n1plus_n2plus, 1, 1, n1minus_n2plus, 1, -1, 74088, 1, -1
3
n1plus_n2minus, 1, 1, n1minus_n2minus, 1, -1, 74088, 1, -1
2
n1minus_n2plus, 1, 1, n1minus_n2minus, 1, -1
**
2
n1plus_n2plus, 2, 1, n1minus_n2plus, 2, -1
2
n1plus_n2minus, 2, 1, n1minus_n2minus, 2, -1
2
n1minus_n2plus, 2, 1, n1minus_n2minus, 2, -1
**
2
n1plus_n2plus, 3, 1, n1minus_n2plus, 3, -1
2
n1plus_n2minus, 3, 1, n1minus_n2minus, 3, -1
2
n1minus_n2plus, 3, 1, n1minus_n2minus, 3, -1
**
**
3
n3plus_n1plus, 1, 1, n3plus_n1minus, 1, -1, 74088, 1, -1
3
n3minus_n1plus, 1, 1, n3minus_n1minus, 1, -1, 74088, 1, -1
2
n3plus_n1minus, 1, 1, n3minus_n1minus, 1, -1
**
2
n3plus_n1plus, 2, 1, n3plus_n1minus, 2, -1
2
n3minus_n1plus, 2, 1, n3minus_n1minus, 2, -1
2
n3plus_n1minus, 2, 1, n3minus_n1minus, 2, -1
**
2
n3plus_n1plus, 3, 1, n3plus_n1minus, 3, -1
2
n3minus_n1plus, 3, 1, n3minus_n1minus, 3, -1
2
n3plus_n1minus, 3, 1, n3minus_n1minus, 3, -1
**
**
2
n2plus_n3plus, 1, 1, n2minus_n3plus, 1, -1
2
n2plus_n3minus, 1, 1, n2minus_n3minus, 1, -1
2
n2minus_n3plus, 1, 1, n2minus_n3minus, 1, -1
**
2
n2plus_n3plus, 2, 1, n2minus_n3plus, 2, -1
2
n2plus_n3minus, 2, 1, n2minus_n3minus, 2, -1
2
n2minus_n3plus, 2, 1, n2minus_n3minus, 2, -1
**
2
n2plus_n3plus, 3, 1, n2minus_n3plus, 3, -1
2
n2plus_n3minus, 3, 1, n2minus_n3minus, 3, -1
2
n2minus_n3plus, 3, 1, n2minus_n3minus, 3, -1
**** ----------------------------------------------------------------- 
** MATERIALS
**
*Solid Section, elset=elset1, material=material-1
1.,
*Material, name=material-1
*Elastic,type=isotropic
120, 0.3
** Solid (element 2 = elset2)
**
*Solid Section, elset=elset2, material=material-2
1.,
**
*Material, name=material-2
*Elastic,type=isotropic
80, 0.3
** ----------------------------------------------------------------
**     
** ----------------------------------------------------------------
** 
** STEP: Step-1
** 
*Step, name=Step-1
*Static
1., 1., 1e-05, 1.
** 
** BOUNDARY CONDITIONS
** 
** Name: BC-1 Type: Displacement/Rotation
*Boundary
**
1,1,3,0
1723,1,3,0
42,1,3,0
1764,1,3,0
72325,1,1,0.02
74047,1,1,0.02
72366,1,1,0.02
74088,1,1,0.02
72325,2,3,0
74047,2,3,0
72366,2,3,0
74088,2,3,0
** 
** OUTPUT REQUESTS
**
*output, field, frequency=0
**
*output, history, frequency=0
** 
*el print, summary=no, totals=yes
S
**
*End Step
