1

   Abaqus 6.13-1                                  Date 27-Apr-2014   Time 08:59:55
   For use at  under license from Dassault Systemes or its subsidiary.



                         The Abaqus Software is a product of:

                           Dassault Systemes Simulia Corp.
                                 Rising Sun Mills
                                 166 Valley Street
                           Providence, RI 02909-2499, USA
 


                   Available for internal use at . 
                   The Abaqus Online Support System is accessible
                   through the "My Support" section of the SIMULIA
                   Home Page at http://www.simulia.com.

                   Support policies for academic licenses are described
                   on the SIMULIA web site at
                   http://www.3ds.com/products/simulia/academics/
 
                          On machine coe7vlab155g 
                          you are authorized to run
                          Abaqus/Standard until 29-Jun-2014

                          Your site id is: 100000000002077 


 
                    For assistance or any other information you may
                    obtain contact information for your local office
                    from the world wide web at:

                      http://www.3ds.com/products/simulia/locations/

 
                * * * * * * * * * * * * * * * * * * * * * * * * * * * * * * 
                *                                                         * 
                *                   *****************                     * 
                *                   *  N O T I C E  *                     * 
                *                   *****************                     * 
                *                                                         * 
                *                                                         * 
                *                    Abaqus 6.13-1                        * 
                *                                                         * 
                *          BUILD ID: 2013_05_15-22.28.56 126354           * 
                *                                                         * 
                *                                                         * 
                *  Please make sure you are using release 6.13 manuals    * 
                *  plus the notes accompanying this release.              * 
                *                                                         * 
                *                                                         * 
                *                                                         * 
                *                                                         * 
                *                                                         * 
                *   This program may not be used for commercial purposes  * 
                *           without payment of a commercial fee.          * 
                *                                                         * 
                * * * * * * * * * * * * * * * * * * * * * * * * * * * * * * 


 



     PROCESSING PART, INSTANCE, AND ASSEMBLY INFORMATION
   *******************************************************


     END PROCESSING PART, INSTANCE, AND ASSEMBLY INFORMATION
   ***********************************************************




     OPTIONS BEING PROCESSED
   ***************************


  *Heading
  *node
  *NSET, NSET=A
  *NSET, NSET=B
  *NSET, NSET=C
  *NSET, NSET=D
  *NSET, NSET=E
  *NSET, NSET=F
  *NSET, NSET=G
  *NSET, NSET=H
  *Nfill, Nset=AB
  *Nfill, Nset=CD
  *Nfill, Nset=ABCD
  *Nfill, Nset=EF
  *Nfill, Nset=GH
  *Nfill, Nset=EFGH
  *Nfill, Nset=ABCDEFGH
  *Nfill, Nset=BD
  *Nfill, Nset=FH
  *Nfill, Nset=BDFH
  *Nfill, Nset=AC
  *Nfill, Nset=EG
  *Nfill, Nset=ACEG
  *ELEMENT, TYPE=C3D8
  *ELGEN, elset=allel
  *ELSET, ELSET=elset1
  *ELSET, ELSET=elset2
  *NSET, NSET=n1plus
  *NSET, NSET=n1minus
  *NSET, NSET=n2minus
  *NSET, NSET=n2plus
  *NSET, NSET=n2minus
  *NSET, NSET=n3minus
  *NSET, NSET=n3plus
  *NSET, NSET=n3minus_n1minus
  *NSET, NSET=n3minus_n1plus
  *NSET, NSET=n2minus_n3minus
  *NSET, NSET=n2plus_n3minus
  *NSET, NSET=n3plus_n1minus
  *NSET, NSET=n3plus_n1plus
  *NSET, NSET=n2minus_n3plus
  *NSET, NSET=n2plus_n3plus
  *NSET, NSET=n1plus_n2minus
  *NSET, NSET=n1plus_n2plus
  *NSET, NSET=n1minus_n2minus
  *NSET, NSET=n1minus_n2plus
  *Material, name=material-1
  *Elastic,type=isotropic
  *Material, name=material-2
  *Elastic,type=isotropic
  *Solid Section, elset=elset1, material=material-1
  *Solid Section, elset=elset2, material=material-2
  *Boundary
  *Equation
  *Solid Section, elset=elset1, material=material-1
  *Solid Section, elset=elset2, material=material-2
  *output, field, frequency=0
  *output, history, frequency=0
  *output, field, frequency=0
  *output, history, frequency=0
  *output, field, frequency=0
  *output, history, frequency=0
  *Step, name=Step-1
  *output, field, frequency=0
  *output, history, frequency=0
  *Step, name=Step-1
  *Step, name=Step-1
  *Static
  *Boundary
  *output, field, frequency=0
  *output, history, frequency=0
  *el print, summary=no, totals=yes
  *End Step
  *Step, name=Step-1
  *Static
  *Boundary
  *End Step



                            P R O B L E M   S I Z E


          NUMBER OF ELEMENTS IS                                  4913
          NUMBER OF NODES IS                                     5832
          NUMBER OF NODES DEFINED BY THE USER                    5832
          TOTAL NUMBER OF VARIABLES IN THE MODEL                17496
          (DEGREES OF FREEDOM PLUS MAX NO. OF ANY LAGRANGE MULTIPLIER
           VARIABLES. INCLUDE *PRINT,SOLVE=YES TO GET THE ACTUAL NUMBER.)



                              END OF USER INPUT PROCESSING



     JOB TIME SUMMARY
       USER TIME (SEC)      =  0.70000    
       SYSTEM TIME (SEC)    =  0.10000    
       TOTAL CPU TIME (SEC) =  0.80000    
       WALLCLOCK TIME (SEC) =          3
1

   Abaqus 6.13-1                                  Date 27-Apr-2014   Time 09:00:11
   For use at  under license from Dassault Systemes or its subsidiary.

                                                                                               STEP    1  INCREMENT    1
                                                                                          TIME COMPLETED IN THIS STEP   0.00    


                        S T E P       1     S T A T I C   A N A L Y S I S


                                                                                          

     AUTOMATIC TIME CONTROL WITH -
          A SUGGESTED INITIAL TIME INCREMENT OF                 1.00    
          AND A TOTAL TIME PERIOD OF                            1.00    
          THE MINIMUM TIME INCREMENT ALLOWED IS                1.000E-05
          THE MAXIMUM TIME INCREMENT ALLOWED IS                 1.00    

     LINEAR EQUATION SOLVER TYPE         DIRECT SPARSE
  
                   M E M O R Y   E S T I M A T E
  
 PROCESS      FLOATING PT       MINIMUM MEMORY        MEMORY TO
              OPERATIONS           REQUIRED          MINIMIZE I/O
             PER ITERATION         (MBYTES)           (MBYTES)
  
     1         1.85E+010               39                183
  
 NOTE:
      (1) SINCE ABAQUS DOES NOT PRE-ALLOCATE MEMORY AND ONLY ALLOCATES MEMORY AS NEEDED DURING THE ANALYSIS,
          THE MEMORY REQUIREMENT PRINTED HERE CAN ONLY BE VIEWED AS A GENERAL GUIDELINE BASED ON THE BEST
          KNOWLEDGE AVAILABLE AT THE BEGINNING OF A STEP BEFORE THE SOLUTION PROCESS HAS BEGUN.
      (2) THE ESTIMATE IS NORMALLY UPDATED AT THE BEGINNING OF EVERY STEP. IT IS THE MAXIMUM VALUE OF THE
          ESTIMATE FROM THE CURRENT STEP TO THE LAST STEP OF THE ANALYSIS, WITH UNSYMMETRIC SOLUTION TAKEN
          INTO ACCOUNT IF APPLICABLE. 
      (3) SINCE THE ESTIMATE IS BASED ON THE ACTIVE DEGREES OF FREEDOM IN THE FIRST ITERATION OF THE 
          CURRENT STEP, THE MEMORY ESTIMATE MIGHT BE SIGNIFICANTLY DIFFERENT THAN ACTUAL USAGE FOR 
          PROBLEMS WITH SUBSTANTIAL CHANGES IN ACTIVE DEGREES OF FREEDOM BETWEEN STEPS (OR EVEN WITHIN
          THE SAME STEP). EXAMPLES ARE: PROBLEMS WITH SIGNIFICANT CONTACT CHANGES, PROBLEMS WITH MODEL
          CHANGE, PROBLEMS WITH BOTH STATIC STEP AND STEADY STATE DYNAMIC PROCEDURES WHERE ACOUSTIC 
          ELEMENTS WILL ONLY BE ACTIVATED IN THE STEADY STATE DYNAMIC STEPS.
      (4) FOR MULTI-PROCESS EXECUTION, THE ESTIMATED VALUE OF FLOATING POINT OPERATIONS FOR EACH PROCESS
          IS BASED ON AN INITIAL SCHEDULING OF OPERATIONS AND MIGHT NOT REFLECT THE ACTUAL FLOATING 
          POINT OPERATIONS COMPLETED ON EACH PROCESS. OPERATIONS ARE DYNAMICALLY BALANCED DURING EXECUTION, 
          SO THE ACTUAL BALANCE OF OPERATIONS BETWEEN PROCESSES IS EXPECTED TO BE BETTER THAN THE ESTIMATE
          PRINTED HERE.
      (5) THE UPPER LIMIT OF MEMORY THAT CAN BE ALLOCATED BY ABAQUS WILL IN GENERAL DEPEND ON THE VALUE OF
          THE "MEMORY" PARAMETER AND THE AMOUNT OF PHYSICAL MEMORY AVAILABLE ON THE MACHINE. PLEASE SEE
          THE "ABAQUS ANALYSIS USER'S MANUAL" FOR MORE DETAILS. THE ACTUAL USAGE OF MEMORY AND OF DISK
          SPACE FOR SCRATCH DATA WILL DEPEND ON THIS UPPER LIMIT AS WELL AS THE MEMORY REQUIRED TO MINIMIZE
          I/O. IF THE MEMORY UPPER LIMIT IS GREATER THAN THE MEMORY REQUIRED TO MINIMIZE I/O, THEN THE ACTUAL
          MEMORY USAGE WILL BE CLOSE TO THE ESTIMATED "MEMORY TO MINIMIZE I/O" VALUE, AND THE SCRATCH DISK
          USAGE WILL BE CLOSE-TO-ZERO; OTHERWISE, THE ACTUAL MEMORY USED WILL BE CLOSE TO THE PREVIOUSLY
          MENTIONED MEMORY LIMIT, AND THE SCRATCH DISK USAGE WILL BE ROUGHLY PROPORTIONAL TO THE DIFFERENCE
          BETWEEN THE ESTIMATED "MEMORY TO MINIMIZE I/O" AND THE MEMORY UPPER LIMIT. HOWEVER ACCURATE
          ESTIMATE OF THE SCRATCH DISK SPACE IS NOT POSSIBLE.
      (6) USING "*RESTART, WRITE" CAN GENERATE A LARGE AMOUNT OF DATA WRITTEN IN THE WORK DIRECTORY.


                                INCREMENT     1 SUMMARY


 TIME INCREMENT COMPLETED   1.00    ,  FRACTION OF STEP COMPLETED   1.00    
 STEP TIME COMPLETED        1.00    ,  TOTAL TIME COMPLETED         1.00    



                                                  E L E M E N T   O U T P U T





   THE FOLLOWING TABLE IS PRINTED FOR ALL ELEMENTS WITH TYPE C3D8 AT THE INTEGRATION POINTS

    ELEMENT  PT FOOT-       E11         E22         E33         E12         E13         E23         
                NOTE 

           1   1         1.2500E-03  5.2583E-08  5.2583E-08 -1.6849E-10 -1.6849E-10  1.1880E-09
           1   2         1.2500E-03  5.1892E-08  5.3514E-08 -1.0806E-09 -1.4519E-10  2.8108E-09
           1   3         1.2500E-03  5.3514E-08  5.1892E-08 -1.4519E-10 -1.0806E-09  2.8108E-09
           1   4         1.2500E-03  5.2801E-08  5.2801E-08 -1.0596E-09 -1.0596E-09  4.4337E-09
           1   5         1.2500E-03  5.2279E-08  5.2279E-08  2.8330E-10  2.8330E-10  1.1863E-09
           1   6         1.2500E-03  5.1588E-08  5.3209E-08 -6.2884E-10  3.7258E-10  2.8069E-09
           1   7         1.2500E-03  5.3209E-08  5.1588E-08  3.7258E-10 -6.2884E-10  2.8069E-09
           1   8         1.2500E-03  5.2496E-08  5.2496E-08 -5.4185E-10 -5.4185E-10  4.4274E-09
           2   1         1.2500E-03  4.7418E-08  5.7274E-08 -1.3620E-09 -1.0946E-10  5.1190E-09
           2   2         1.2500E-03  4.5368E-08  6.0002E-08 -2.1380E-09 -3.5134E-11  6.6470E-09
           2   3         1.2500E-03  4.8231E-08  5.6559E-08 -1.2900E-09 -1.0249E-09  9.8969E-09
           2   4         1.2500E-03  4.6114E-08  5.9219E-08 -2.0620E-09 -9.5119E-10  1.1425E-08
           2   5         1.2500E-03  4.7206E-08  5.6922E-08  9.0734E-12  5.0699E-10  5.1163E-09
           2   6         1.2500E-03  4.5156E-08  5.9650E-08 -7.6685E-10  7.8493E-10  6.6482E-09
           2   7         1.2500E-03  4.8022E-08  5.6206E-08  2.8471E-10 -4.0849E-10  9.8936E-09
           2   8         1.2500E-03  4.5904E-08  5.8866E-08 -4.8726E-10 -1.3112E-10  1.1426E-08
           3   1         1.2500E-03  3.6572E-08  6.7301E-08 -2.2756E-09  4.2519E-11  8.7173E-09
           3   2         1.2500E-03  3.3268E-08  7.1611E-08 -2.8036E-09  1.8035E-10  1.0010E-08
           3   3         1.2500E-03  3.7092E-08  6.6529E-08 -2.1362E-09 -8.6613E-10  1.6331E-08
           3   4         1.2500E-03  3.3670E-08  7.0720E-08 -2.6472E-09 -7.0746E-10  1.7623E-08
           3   5         1.2500E-03  3.6523E-08  6.6872E-08  2.3429E-11  1.0673E-09  8.7340E-09
           3   6         1.2500E-03  3.3212E-08  7.1195E-08 -5.0460E-10  1.5609E-09  1.0043E-08
           3   7         1.2500E-03  3.7055E-08  6.6094E-08  5.1850E-10  1.5868E-10  1.6369E-08
           3   8         1.2500E-03  3.3625E-08  7.0298E-08  7.5594E-12  6.7307E-10  1.7678E-08
           4   1         1.2500E-03  2.0643E-08  8.1907E-08 -2.7662E-09  3.0766E-10  1.1594E-08
           4   2         1.2500E-03  1.6333E-08  8.7389E-08 -2.9740E-09  5.1766E-10  1.2452E-08
           4   3         1.2500E-03  2.0649E-08  8.1056E-08 -2.5379E-09 -5.4921E-10  2.1386E-08
           4   4         1.2500E-03  1.6169E-08  8.6368E-08 -2.7211E-09 -2.7552E-10  2.2243E-08
           4   5         1.2500E-03  2.0790E-08  8.1405E-08  3.7108E-10  2.0051E-09  1.1659E-08
           4   6         1.2500E-03  1.6459E-08  8.6930E-08  1.6320E-10  2.7251E-09  1.2541E-08
           4   7         1.2500E-03  2.0812E-08  8.0545E-08  1.1093E-09  1.1482E-09  2.1514E-08
           4   8         1.2500E-03  1.6311E-08  8.5900E-08  9.2621E-10  1.9319E-09  2.2397E-08
           5   1         1.2500E-03  9.8367E-10  9.9672E-08 -2.8002E-09  6.9221E-10  1.3235E-08
           5   2         1.2500E-03 -3.8727E-09  1.0569E-07 -2.6708E-09  9.5908E-10  1.3430E-08
           5   3         1.2500E-03  2.3987E-10  9.8733E-08 -2.4906E-09 -3.8322E-11  2.4113E-08
           5   4         1.2500E-03 -4.8237E-09  1.0455E-07 -2.3427E-09  3.3603E-10  2.4309E-08
           5   5         1.2500E-03  1.3135E-09  9.9141E-08  8.9026E-10  3.3139E-09  1.3356E-08
           5   6         1.2500E-03 -3.5787E-09  1.0524E-07  1.0197E-09  4.2024E-09  1.3570E-08
           5   7         1.2500E-03  5.8201E-10  9.8196E-08  1.8215E-09  2.5834E-09  2.4342E-08
           5   8         1.2500E-03 -4.5174E-09  1.0408E-07  1.9695E-09  3.5793E-09  2.4556E-08
           6   1         1.2500E-03 -2.0054E-08  1.1842E-07 -2.4614E-09  1.1657E-09  1.3106E-08
           6   2         1.2500E-03 -2.4773E-08  1.2415E-07 -2.0394E-09  1.4632E-09  1.2456E-08
           6   3         1.2500E-03 -2.1724E-08  1.1740E-07 -2.1041E-09  6.3734E-10  2.3553E-08
           6   4         1.2500E-03 -2.6664E-08  1.2290E-07 -1.6608E-09  1.0862E-09  2.2904E-08
           6   5         1.2500E-03 -1.9596E-08  1.1793E-07  1.2497E-09  4.8787E-09  1.3276E-08
           6   6         1.2500E-03 -2.4366E-08  1.2375E-07  1.6717E-09  5.8378E-09  1.2648E-08
           6   7         1.2500E-03 -2.1253E-08  1.1690E-07  2.2686E-09  4.3503E-09  2.3875E-08
           6   8         1.2500E-03 -2.6243E-08  1.2251E-07  2.7119E-09  5.4607E-09  2.3247E-08
           7   1         1.2500E-03 -3.9239E-08  1.3537E-07 -1.9012E-09  1.6826E-09  1.0871E-08
           7   2         1.2500E-03 -4.3007E-08  1.3988E-07 -1.2596E-09  1.9843E-09  9.3586E-09
           7   3         1.2500E-03 -4.1862E-08  1.3426E-07 -1.5231E-09  1.4356E-09  1.9149E-08
           7   4         1.2500E-03 -4.5836E-08  1.3857E-07 -8.6299E-10  1.9415E-09  1.7636E-08
           7   5         1.2500E-03 -3.8729E-08  1.3499E-07  1.1239E-09  6.5263E-09  1.1097E-08
           7   6         1.2500E-03 -4.2565E-08  1.3964E-07  1.7655E-09  7.4483E-09  9.6028E-09
           7   7         1.2500E-03 -4.1339E-08  1.3388E-07  2.1223E-09  6.2794E-09  1.9579E-08
           7   8         1.2500E-03 -4.5382E-08  1.3832E-07  2.7824E-09  7.4055E-09  1.8085E-08
           8   1         1.2500E-03 -5.3077E-08  1.4764E-07 -1.2199E-09  2.1738E-09  6.6653E-09
           8   2         1.2500E-03 -5.5167E-08  1.5012E-07 -4.2052E-10  2.3898E-09  4.5187E-09
           8   3         1.2500E-03 -5.6455E-08  1.4640E-07 -9.1072E-10  2.2706E-09  1.1244E-08
           8   4         1.2500E-03 -5.8683E-08  1.4875E-07 -1.6110E-10  2.6639E-09  9.0972E-09
           8   5         1.2500E-03 -5.2576E-08  1.4743E-07  4.7264E-10  8.0159E-09  6.8883E-09
           8   6         1.2500E-03 -5.4726E-08  1.5004E-07  1.2720E-09  8.6445E-09  4.6920E-09
           8   7         1.2500E-03 -5.5988E-08  1.4622E-07  1.1945E-09  8.1127E-09  1.1644E-08
           8   8         1.2500E-03 -5.8275E-08  1.4869E-07  1.9441E-09  8.9187E-09  9.4477E-09
           9   1         1.2500E-03 -5.8782E-08  1.5290E-07 -4.3153E-10  2.4688E-09  1.1877E-09
           9   2         1.2500E-03 -5.8782E-08  1.5290E-07  4.3153E-10  2.4688E-09 -1.1877E-09
           9   3         1.2500E-03 -6.2501E-08  1.5155E-07 -3.7949E-10  2.8078E-09  1.1877E-09
           9   4         1.2500E-03 -6.2501E-08  1.5155E-07  3.7949E-10  2.8078E-09 -1.1877E-09
           9   5         1.2500E-03 -5.8320E-08  1.5284E-07 -4.3153E-10  8.8746E-09  1.2398E-09
           9   6         1.2500E-03 -5.8320E-08  1.5284E-07  4.3153E-10  8.8746E-09 -1.2398E-09
           9   7         1.2500E-03 -6.2108E-08  1.5153E-07 -3.7949E-10  9.2137E-09  1.2398E-09
           9   8         1.2500E-03 -6.2108E-08  1.5153E-07  3.7949E-10  9.2137E-09 -1.2398E-09
          10   1         1.2500E-03 -5.5167E-08  1.5012E-07  4.2052E-10  2.3898E-09 -4.5187E-09
          10   2         1.2500E-03 -5.3077E-08  1.4764E-07  1.2199E-09  2.1738E-09 -6.6653E-09
          10   3         1.2500E-03 -5.8683E-08  1.4875E-07  1.6110E-10  2.6639E-09 -9.0972E-09
          10   4         1.2500E-03 -5.6455E-08  1.4640E-07  9.1072E-10  2.2706E-09 -1.1244E-08
          10   5         1.2500E-03 -5.4726E-08  1.5004E-07 -1.2720E-09  8.6445E-09 -4.6920E-09
          10   6         1.2500E-03 -5.2576E-08  1.4743E-07 -4.7264E-10  8.0159E-09 -6.8883E-09
          10   7         1.2500E-03 -5.8275E-08  1.4869E-07 -1.9441E-09  8.9187E-09 -9.4477E-09
          10   8         1.2500E-03 -5.5988E-08  1.4622E-07 -1.1945E-09  8.1127E-09 -1.1644E-08
          11   1         1.2500E-03 -4.3007E-08  1.3988E-07  1.2596E-09  1.9843E-09 -9.3586E-09
          11   2         1.2500E-03 -3.9239E-08  1.3537E-07  1.9012E-09  1.6826E-09 -1.0871E-08
          11   3         1.2500E-03 -4.5836E-08  1.3857E-07  8.6299E-10  1.9415E-09 -1.7636E-08
          11   4         1.2500E-03 -4.1862E-08  1.3426E-07  1.5231E-09  1.4356E-09 -1.9149E-08
          11   5         1.2500E-03 -4.2565E-08  1.3964E-07 -1.7655E-09  7.4483E-09 -9.6028E-09
          11   6         1.2500E-03 -3.8729E-08  1.3499E-07 -1.1239E-09  6.5263E-09 -1.1097E-08
          11   7         1.2500E-03 -4.5382E-08  1.3832E-07 -2.7824E-09  7.4055E-09 -1.8085E-08
          11   8         1.2500E-03 -4.1339E-08  1.3388E-07 -2.1223E-09  6.2794E-09 -1.9579E-08
          12   1         1.2500E-03 -2.4773E-08  1.2415E-07  2.0394E-09  1.4632E-09 -1.2456E-08
          12   2         1.2500E-03 -2.0054E-08  1.1842E-07  2.4614E-09  1.1657E-09 -1.3106E-08
          12   3         1.2500E-03 -2.6664E-08  1.2290E-07  1.6608E-09  1.0862E-09 -2.2904E-08
          12   4         1.2500E-03 -2.1724E-08  1.1740E-07  2.1041E-09  6.3734E-10 -2.3553E-08
          12   5         1.2500E-03 -2.4366E-08  1.2375E-07 -1.6717E-09  5.8378E-09 -1.2648E-08
          12   6         1.2500E-03 -1.9596E-08  1.1793E-07 -1.2497E-09  4.8787E-09 -1.3276E-08
          12   7         1.2500E-03 -2.6243E-08  1.2251E-07 -2.7119E-09  5.4607E-09 -2.3247E-08
          12   8         1.2500E-03 -2.1253E-08  1.1690E-07 -2.2686E-09  4.3503E-09 -2.3875E-08
          13   1         1.2500E-03 -3.8727E-09  1.0569E-07  2.6708E-09  9.5908E-10 -1.3430E-08
          13   2         1.2500E-03  9.8367E-10  9.9672E-08  2.8002E-09  6.9221E-10 -1.3235E-08
          13   3         1.2500E-03 -4.8237E-09  1.0455E-07  2.3427E-09  3.3603E-10 -2.4309E-08
          13   4         1.2500E-03  2.3987E-10  9.8733E-08  2.4906E-09 -3.8322E-11 -2.4113E-08
          13   5         1.2500E-03 -3.5787E-09  1.0524E-07 -1.0197E-09  4.2024E-09 -1.3570E-08
          13   6         1.2500E-03  1.3135E-09  9.9141E-08 -8.9026E-10  3.3139E-09 -1.3356E-08
          13   7         1.2500E-03 -4.5174E-09  1.0408E-07 -1.9695E-09  3.5793E-09 -2.4556E-08
          13   8         1.2500E-03  5.8201E-10  9.8196E-08 -1.8215E-09  2.5834E-09 -2.4342E-08
          14   1         1.2500E-03  1.6333E-08  8.7389E-08  2.9740E-09  5.1766E-10 -1.2452E-08
          14   2         1.2500E-03  2.0643E-08  8.1907E-08  2.7662E-09  3.0766E-10 -1.1594E-08
          14   3         1.2500E-03  1.6169E-08  8.6368E-08  2.7211E-09 -2.7552E-10 -2.2243E-08
          14   4         1.2500E-03  2.0649E-08  8.1056E-08  2.5379E-09 -5.4921E-10 -2.1386E-08
          14   5         1.2500E-03  1.6459E-08  8.6930E-08 -1.6320E-10  2.7251E-09 -1.2541E-08
          14   6         1.2500E-03  2.0790E-08  8.1405E-08 -3.7108E-10  2.0051E-09 -1.1659E-08
          14   7         1.2500E-03  1.6311E-08  8.5900E-08 -9.2621E-10  1.9319E-09 -2.2397E-08
          14   8         1.2500E-03  2.0812E-08  8.0545E-08 -1.1093E-09  1.1482E-09 -2.1514E-08
          15   1         1.2500E-03  3.3268E-08  7.1611E-08  2.8036E-09  1.8035E-10 -1.0010E-08
          15   2         1.2500E-03  3.6572E-08  6.7301E-08  2.2756E-09  4.2519E-11 -8.7173E-09
          15   3         1.2500E-03  3.3670E-08  7.0720E-08  2.6472E-09 -7.0746E-10 -1.7623E-08
          15   4         1.2500E-03  3.7092E-08  6.6529E-08  2.1362E-09 -8.6613E-10 -1.6331E-08
          15   5         1.2500E-03  3.3212E-08  7.1195E-08  5.0460E-10  1.5609E-09 -1.0043E-08
          15   6         1.2500E-03  3.6523E-08  6.6872E-08 -2.3429E-11  1.0673E-09 -8.7340E-09
          15   7         1.2500E-03  3.3625E-08  7.0298E-08 -7.5594E-12  6.7307E-10 -1.7678E-08
          15   8         1.2500E-03  3.7055E-08  6.6094E-08 -5.1850E-10  1.5868E-10 -1.6369E-08
          16   1         1.2500E-03  4.5368E-08  6.0002E-08  2.1380E-09 -3.5134E-11 -6.6470E-09
          16   2         1.2500E-03  4.7418E-08  5.7274E-08  1.3620E-09 -1.0946E-10 -5.1190E-09
          16   3         1.2500E-03  4.6114E-08  5.9219E-08  2.0620E-09 -9.5119E-10 -1.1425E-08
          16   4         1.2500E-03  4.8231E-08  5.6559E-08  1.2900E-09 -1.0249E-09 -9.8969E-09
          16   5         1.2500E-03  4.5156E-08  5.9650E-08  7.6685E-10  7.8493E-10 -6.6482E-09
          16   6         1.2500E-03  4.7206E-08  5.6922E-08 -9.0734E-12  5.0699E-10 -5.1163E-09
          16   7         1.2500E-03  4.5904E-08  5.8866E-08  4.8726E-10 -1.3112E-10 -1.1426E-08
          16   8         1.2500E-03  4.8022E-08  5.6206E-08 -2.8471E-10 -4.0849E-10 -9.8936E-09
          17   1         1.2500E-03  5.1892E-08  5.3514E-08  1.0806E-09 -1.4519E-10 -2.8108E-09
          17   2         1.2500E-03  5.2583E-08  5.2583E-08  1.6849E-10 -1.6849E-10 -1.1880E-09
          17   3         1.2500E-03  5.2801E-08  5.2801E-08  1.0596E-09 -1.0596E-09 -4.4337E-09
          17   4         1.2500E-03  5.3514E-08  5.1892E-08  1.4519E-10 -1.0806E-09 -2.8108E-09
          17   5         1.2500E-03  5.1588E-08  5.3209E-08  6.2884E-10  3.7258E-10 -2.8069E-09
          17   6         1.2500E-03  5.2279E-08  5.2279E-08 -2.8330E-10  2.8330E-10 -1.1863E-09
          17   7         1.2500E-03  5.2496E-08  5.2496E-08  5.4185E-10 -5.4185E-10 -4.4274E-09
          17   8         1.2500E-03  5.3209E-08  5.1588E-08 -3.7258E-10 -6.2884E-10 -2.8069E-09
          18   1         1.2500E-03  5.7274E-08  4.7418E-08 -1.0946E-10 -1.3620E-09  5.1190E-09
          18   2         1.2500E-03  5.6559E-08  4.8231E-08 -1.0249E-09 -1.2900E-09  9.8969E-09
          18   3         1.2500E-03  6.0002E-08  4.5368E-08 -3.5134E-11 -2.1380E-09  6.6470E-09
          18   4         1.2500E-03  5.9219E-08  4.6114E-08 -9.5119E-10 -2.0620E-09  1.1425E-08
          18   5         1.2500E-03  5.6922E-08  4.7206E-08  5.0699E-10  9.0734E-12  5.1163E-09
          18   6         1.2500E-03  5.6206E-08  4.8022E-08 -4.0849E-10  2.8471E-10  9.8936E-09
          18   7         1.2500E-03  5.9650E-08  4.5156E-08  7.8493E-10 -7.6685E-10  6.6482E-09
          18   8         1.2500E-03  5.8866E-08  4.5904E-08 -1.3112E-10 -4.8726E-10  1.1426E-08
          19   1         1.2500E-03  5.1978E-08  5.1978E-08 -1.1752E-09 -1.1752E-09  1.9858E-08
          19   2         1.2500E-03  4.9845E-08  5.4362E-08 -1.9364E-09 -9.3360E-10  2.4376E-08
          19   3         1.2500E-03  5.4362E-08  4.9845E-08 -9.3360E-10 -1.9364E-09  2.4376E-08
          19   4         1.2500E-03  5.2016E-08  5.2016E-08 -1.6693E-09 -1.6693E-09  2.8893E-08
          19   5         1.2500E-03  5.1724E-08  5.1724E-08  7.0732E-10  7.0732E-10  1.9875E-08
          19   6         1.2500E-03  4.9583E-08  5.4126E-08 -5.3872E-11  1.5863E-09  2.4418E-08
          19   7         1.2500E-03  5.4126E-08  4.9583E-08  1.5863E-09 -5.3872E-11  2.4418E-08
          19   8         1.2500E-03  5.1771E-08  5.1771E-08  8.5058E-10  8.5058E-10  2.8961E-08
          20   1         1.2500E-03  4.0739E-08  6.1690E-08 -1.9104E-09 -6.7168E-10  3.3356E-08
          20   2         1.2500E-03  3.7254E-08  6.5464E-08 -2.3921E-09 -1.9770E-10  3.7214E-08
          20   3         1.2500E-03  4.2256E-08  5.9349E-08 -1.4327E-09 -1.3717E-09  4.0616E-08
          20   4         1.2500E-03  3.8396E-08  6.2749E-08 -1.8517E-09 -8.2574E-10  4.4473E-08
          20   5         1.2500E-03  4.0651E-08  6.1384E-08  1.2861E-09  2.4930E-09  3.3485E-08
          20   6         1.2500E-03  3.7142E-08  6.5206E-08  8.0438E-10  4.0914E-09  3.7405E-08
          20   7         1.2500E-03  4.2210E-08  5.9022E-08  2.8882E-09  1.7930E-09  4.0816E-08
          20   8         1.2500E-03  3.8326E-08  6.2470E-08  2.4692E-09  3.4633E-09  4.4736E-08
          21   1         1.2500E-03  2.3979E-08  7.5907E-08 -2.1682E-09  2.5374E-10  4.4146E-08
          21   2         1.2500E-03  1.9357E-08  8.0721E-08 -2.3083E-09  1.0131E-09  4.6743E-08
          21   3         1.2500E-03  2.3945E-08  7.3276E-08 -1.3864E-09 -2.9488E-10  5.3582E-08
          21   4         1.2500E-03  1.8780E-08  7.7547E-08 -1.4337E-09  6.0951E-10  5.6180E-08
          21   5         1.2500E-03  2.4069E-08  7.5588E-08  2.2617E-09  5.5503E-09  4.4495E-08
          21   6         1.2500E-03  1.9398E-08  8.0499E-08  2.1216E-09  7.9380E-09  4.7185E-08
          21   7         1.2500E-03  2.4097E-08  7.2926E-08  4.6718E-09  5.0017E-09  5.4076E-08
          21   8         1.2500E-03  1.8883E-08  7.7294E-08  4.6245E-09  7.5344E-09  5.6767E-08
          22   1         1.2500E-03  2.9421E-09  9.3327E-08 -1.9749E-09  1.6683E-09  5.0230E-08
          22   2         1.2500E-03 -2.3513E-09  9.8624E-08 -1.7831E-09  2.6990E-09  5.0862E-08
          22   3         1.2500E-03  6.0629E-10  9.0360E-08 -8.7560E-10  1.4128E-09  6.0821E-08
          22   4         1.2500E-03 -5.3697E-09  9.4974E-08 -5.8235E-10  2.7029E-09  6.1452E-08
          22   5         1.2500E-03  3.1551E-09  9.3093E-08  3.3143E-09  9.9388E-09  5.0861E-08
          22   6         1.2500E-03 -2.2247E-09  9.8563E-08  3.5062E-09  1.3017E-08  5.1594E-08
          22   7         1.2500E-03  8.8698E-10  9.0091E-08  6.4614E-09  9.6832E-09  6.1711E-08
          22   8         1.2500E-03 -5.1755E-09  9.4879E-08  6.7547E-09  1.3021E-08  6.2444E-08
          23   1         1.2500E-03 -1.9948E-08  1.1184E-07 -1.4990E-09  3.5051E-09  4.9547E-08
          23   2         1.2500E-03 -2.5180E-08  1.1689E-07 -1.0383E-09  4.6768E-09  4.7670E-08
          23   3         1.2500E-03 -2.5154E-08  1.0851E-07 -2.0323E-10  3.7157E-09  5.9831E-08
          23   4         1.2500E-03 -3.1113E-08  1.1284E-07  2.8356E-10  5.1925E-09  5.7954E-08
          23   5         1.2500E-03 -1.9711E-08  1.1183E-07  3.9138E-09  1.5371E-08  5.0418E-08
          23   6         1.2500E-03 -2.5045E-08  1.1708E-07  4.3744E-09  1.8722E-08  4.8568E-08
          23   7         1.2500E-03 -2.4899E-08  1.0849E-07  7.3895E-09  1.5581E-08  6.1008E-08
          23   8         1.2500E-03 -3.0960E-08  1.1302E-07  7.8763E-09  1.9238E-08  5.9157E-08
          24   1         1.2500E-03 -4.1165E-08  1.2867E-07 -9.6175E-10  5.4914E-09  4.0866E-08
          24   2         1.2500E-03 -4.5440E-08  1.3269E-07 -3.3297E-10  6.5451E-09  3.6411E-08
          24   3         1.2500E-03 -4.9303E-08  1.2498E-07  1.9384E-10  6.1588E-09  4.9159E-08
          24   4         1.2500E-03 -5.4179E-08  1.2840E-07  7.1846E-10  7.3218E-09  4.4704E-08
          24   5         1.2500E-03 -4.0968E-08  1.2890E-07  3.5708E-09  2.0995E-08  4.1755E-08
          24   6         1.2500E-03 -4.5280E-08  1.3299E-07  4.1996E-09  2.3852E-08  3.7196E-08
          24   7         1.2500E-03 -4.9175E-08  1.2525E-07  6.5300E-09  2.1663E-08  5.0157E-08
          24   8         1.2500E-03 -5.4088E-08  1.2874E-07  7.0547E-09  2.4629E-08  4.5598E-08
          25   1         1.2500E-03 -5.6724E-08  1.4087E-07 -5.5645E-10  7.1608E-09  2.4693E-08
          25   2         1.2500E-03 -5.9157E-08  1.4312E-07  1.2209E-10  7.7892E-09  1.8246E-08
          25   3         1.2500E-03 -6.7130E-08  1.3691E-07  1.0224E-10  7.9404E-09  2.9378E-08
          25   4         1.2500E-03 -6.9890E-08  1.3883E-07  6.3638E-10  8.4673E-09  2.2931E-08
          25   5         1.2500E-03 -5.6531E-08  1.4116E-07  2.0582E-09  2.5487E-08  2.5263E-08
          25   6         1.2500E-03 -5.8931E-08  1.4334E-07  2.7368E-09  2.7094E-08  1.8672E-08
          25   7         1.2500E-03 -6.7034E-08  1.3725E-07  3.6961E-09  2.6266E-08  2.9847E-08
          25   8         1.2500E-03 -6.9760E-08  1.3911E-07  4.2303E-09  2.7772E-08  2.3256E-08
          26   1         1.2500E-03 -6.3242E-08  1.4605E-07 -3.3866E-10  8.0192E-09  3.6035E-09
          26   2         1.2500E-03 -6.3242E-08  1.4605E-07  3.3866E-10  8.0192E-09 -3.6035E-09
          26   3         1.2500E-03 -7.4601E-08  1.4190E-07 -2.7918E-10  8.6602E-09  3.6035E-09
          26   4         1.2500E-03 -7.4601E-08  1.4190E-07  2.7918E-10  8.6602E-09 -3.6035E-09
          26   5         1.2500E-03 -6.3004E-08  1.4625E-07 -3.3866E-10  2.7683E-08  3.6629E-09
          26   6         1.2500E-03 -6.3004E-08  1.4625E-07  3.3866E-10  2.7683E-08 -3.6629E-09
          26   7         1.2500E-03 -7.4443E-08  1.4214E-07 -2.7918E-10  2.8324E-08  3.6629E-09
          26   8         1.2500E-03 -7.4443E-08  1.4214E-07  2.7918E-10  2.8324E-08 -3.6629E-09
          27   1         1.2500E-03 -5.9157E-08  1.4312E-07 -1.2209E-10  7.7892E-09 -1.8246E-08
          27   2         1.2500E-03 -5.6724E-08  1.4087E-07  5.5645E-10  7.1608E-09 -2.4693E-08
          27   3         1.2500E-03 -6.9890E-08  1.3883E-07 -6.3638E-10  8.4673E-09 -2.2931E-08
          27   4         1.2500E-03 -6.7130E-08  1.3691E-07 -1.0224E-10  7.9404E-09 -2.9378E-08
          27   5         1.2500E-03 -5.8931E-08  1.4334E-07 -2.7368E-09  2.7094E-08 -1.8672E-08
          27   6         1.2500E-03 -5.6531E-08  1.4116E-07 -2.0582E-09  2.5487E-08 -2.5263E-08
          27   7         1.2500E-03 -6.9760E-08  1.3911E-07 -4.2303E-09  2.7772E-08 -2.3256E-08
          27   8         1.2500E-03 -6.7034E-08  1.3725E-07 -3.6961E-09  2.6266E-08 -2.9847E-08
          28   1         1.2500E-03 -4.5440E-08  1.3269E-07  3.3297E-10  6.5451E-09 -3.6411E-08
          28   2         1.2500E-03 -4.1165E-08  1.2867E-07  9.6175E-10  5.4914E-09 -4.0866E-08
          28   3         1.2500E-03 -5.4179E-08  1.2840E-07 -7.1846E-10  7.3218E-09 -4.4704E-08
          28   4         1.2500E-03 -4.9303E-08  1.2498E-07 -1.9384E-10  6.1588E-09 -4.9159E-08
          28   5         1.2500E-03 -4.5280E-08  1.3299E-07 -4.1996E-09  2.3852E-08 -3.7196E-08
          28   6         1.2500E-03 -4.0968E-08  1.2890E-07 -3.5708E-09  2.0995E-08 -4.1755E-08
          28   7         1.2500E-03 -5.4088E-08  1.2874E-07 -7.0547E-09  2.4629E-08 -4.5598E-08
          28   8         1.2500E-03 -4.9175E-08  1.2525E-07 -6.5300E-09  2.1663E-08 -5.0157E-08
          29   1         1.2500E-03 -2.5180E-08  1.1689E-07  1.0383E-09  4.6768E-09 -4.7670E-08
          29   2         1.2500E-03 -1.9948E-08  1.1184E-07  1.4990E-09  3.5051E-09 -4.9547E-08
          29   3         1.2500E-03 -3.1113E-08  1.1284E-07 -2.8356E-10  5.1925E-09 -5.7954E-08
          29   4         1.2500E-03 -2.5154E-08  1.0851E-07  2.0323E-10  3.7157E-09 -5.9831E-08
          29   5         1.2500E-03 -2.5045E-08  1.1708E-07 -4.3744E-09  1.8722E-08 -4.8568E-08
          29   6         1.2500E-03 -1.9711E-08  1.1183E-07 -3.9138E-09  1.5371E-08 -5.0418E-08
          29   7         1.2500E-03 -3.0960E-08  1.1302E-07 -7.8763E-09  1.9238E-08 -5.9157E-08
          29   8         1.2500E-03 -2.4899E-08  1.0849E-07 -7.3895E-09  1.5581E-08 -6.1008E-08
          30   1         1.2500E-03 -2.3513E-09  9.8624E-08  1.7831E-09  2.6990E-09 -5.0862E-08
          30   2         1.2500E-03  2.9421E-09  9.3327E-08  1.9749E-09  1.6683E-09 -5.0230E-08
          30   3         1.2500E-03 -5.3697E-09  9.4974E-08  5.8235E-10  2.7029E-09 -6.1452E-08
          30   4         1.2500E-03  6.0629E-10  9.0360E-08  8.7560E-10  1.4128E-09 -6.0821E-08
          30   5         1.2500E-03 -2.2247E-09  9.8563E-08 -3.5062E-09  1.3017E-08 -5.1594E-08
          30   6         1.2500E-03  3.1551E-09  9.3093E-08 -3.3143E-09  9.9388E-09 -5.0861E-08
          30   7         1.2500E-03 -5.1755E-09  9.4879E-08 -6.7547E-09  1.3021E-08 -6.2444E-08
          30   8         1.2500E-03  8.8698E-10  9.0091E-08 -6.4614E-09  9.6832E-09 -6.1711E-08
          31   1         1.2500E-03  1.9357E-08  8.0721E-08  2.3083E-09  1.0131E-09 -4.6743E-08
          31   2         1.2500E-03  2.3979E-08  7.5907E-08  2.1682E-09  2.5374E-10 -4.4146E-08
          31   3         1.2500E-03  1.8780E-08  7.7547E-08  1.4337E-09  6.0951E-10 -5.6180E-08
          31   4         1.2500E-03  2.3945E-08  7.3276E-08  1.3864E-09 -2.9488E-10 -5.3582E-08
          31   5         1.2500E-03  1.9398E-08  8.0499E-08 -2.1216E-09  7.9380E-09 -4.7185E-08
          31   6         1.2500E-03  2.4069E-08  7.5588E-08 -2.2617E-09  5.5503E-09 -4.4495E-08
          31   7         1.2500E-03  1.8883E-08  7.7294E-08 -4.6245E-09  7.5344E-09 -5.6767E-08
          31   8         1.2500E-03  2.4097E-08  7.2926E-08 -4.6718E-09  5.0017E-09 -5.4076E-08
          32   1         1.2500E-03  3.7254E-08  6.5464E-08  2.3921E-09 -1.9770E-10 -3.7214E-08
          32   2         1.2500E-03  4.0739E-08  6.1690E-08  1.9104E-09 -6.7168E-10 -3.3356E-08
          32   3         1.2500E-03  3.8396E-08  6.2749E-08  1.8517E-09 -8.2574E-10 -4.4473E-08
          32   4         1.2500E-03  4.2256E-08  5.9349E-08  1.4327E-09 -1.3717E-09 -4.0616E-08
          32   5         1.2500E-03  3.7142E-08  6.5206E-08 -8.0438E-10  4.0914E-09 -3.7405E-08
          32   6         1.2500E-03  4.0651E-08  6.1384E-08 -1.2861E-09  2.4930E-09 -3.3485E-08
          32   7         1.2500E-03  3.8326E-08  6.2470E-08 -2.4692E-09  3.4633E-09 -4.4736E-08
          32   8         1.2500E-03  4.2210E-08  5.9022E-08 -2.8882E-09  1.7930E-09 -4.0816E-08
          33   1         1.2500E-03  4.9845E-08  5.4362E-08  1.9364E-09 -9.3360E-10 -2.4376E-08
          33   2         1.2500E-03  5.1978E-08  5.1978E-08  1.1752E-09 -1.1752E-09 -1.9858E-08
          33   3         1.2500E-03  5.2016E-08  5.2016E-08  1.6693E-09 -1.6693E-09 -2.8893E-08
          33   4         1.2500E-03  5.4362E-08  4.9845E-08  9.3360E-10 -1.9364E-09 -2.4376E-08
          33   5         1.2500E-03  4.9583E-08  5.4126E-08  5.3872E-11  1.5863E-09 -2.4418E-08
          33   6         1.2500E-03  5.1724E-08  5.1724E-08 -7.0732E-10  7.0732E-10 -1.9875E-08
          33   7         1.2500E-03  5.1771E-08  5.1771E-08 -8.5058E-10  8.5058E-10 -2.8961E-08
          33   8         1.2500E-03  5.4126E-08  4.9583E-08 -1.5863E-09 -5.3872E-11 -2.4418E-08
          34   1         1.2500E-03  5.6559E-08  4.8231E-08  1.0249E-09 -1.2900E-09 -9.8969E-09
          34   2         1.2500E-03  5.7274E-08  4.7418E-08  1.0946E-10 -1.3620E-09 -5.1190E-09
          34   3         1.2500E-03  5.9219E-08  4.6114E-08  9.5119E-10 -2.0620E-09 -1.1425E-08
          34   4         1.2500E-03  6.0002E-08  4.5368E-08  3.5134E-11 -2.1380E-09 -6.6470E-09
          34   5         1.2500E-03  5.6206E-08  4.8022E-08  4.0849E-10  2.8471E-10 -9.8936E-09
          34   6         1.2500E-03  5.6922E-08  4.7206E-08 -5.0699E-10  9.0734E-12 -5.1163E-09
          34   7         1.2500E-03  5.8866E-08  4.5904E-08  1.3112E-10 -4.8726E-10 -1.1426E-08
          34   8         1.2500E-03  5.9650E-08  4.5156E-08 -7.8493E-10 -7.6685E-10 -6.6482E-09
          35   1         1.2500E-03  6.7301E-08  3.6572E-08  4.2519E-11 -2.2756E-09  8.7173E-09
          35   2         1.2500E-03  6.6529E-08  3.7092E-08 -8.6613E-10 -2.1362E-09  1.6331E-08
          35   3         1.2500E-03  7.1611E-08  3.3268E-08  1.8035E-10 -2.8036E-09  1.0010E-08
          35   4         1.2500E-03  7.0720E-08  3.3670E-08 -7.0746E-10 -2.6472E-09  1.7623E-08
          35   5         1.2500E-03  6.6872E-08  3.6523E-08  1.0673E-09  2.3429E-11  8.7340E-09
          35   6         1.2500E-03  6.6094E-08  3.7055E-08  1.5868E-10  5.1850E-10  1.6369E-08
          35   7         1.2500E-03  7.1195E-08  3.3212E-08  1.5609E-09 -5.0460E-10  1.0043E-08
          35   8         1.2500E-03  7.0298E-08  3.3625E-08  6.7307E-10  7.5594E-12  1.7678E-08
          36   1         1.2500E-03  6.1690E-08  4.0739E-08 -6.7168E-10 -1.9104E-09  3.3356E-08
          36   2         1.2500E-03  5.9349E-08  4.2256E-08 -1.3717E-09 -1.4327E-09  4.0616E-08
          36   3         1.2500E-03  6.5464E-08  3.7254E-08 -1.9770E-10 -2.3921E-09  3.7214E-08
          36   4         1.2500E-03  6.2749E-08  3.8396E-08 -8.2574E-10 -1.8517E-09  4.4473E-08
          36   5         1.2500E-03  6.1384E-08  4.0651E-08  2.4930E-09  1.2861E-09  3.3485E-08
          36   6         1.2500E-03  5.9022E-08  4.2210E-08  1.7930E-09  2.8882E-09  4.0816E-08
          36   7         1.2500E-03  6.5206E-08  3.7142E-08  4.0914E-09  8.0438E-10  3.7405E-08
          36   8         1.2500E-03  6.2470E-08  3.8326E-08  3.4633E-09  2.4692E-09  4.4736E-08
          37   1         1.2500E-03  4.9494E-08  4.9494E-08 -9.0802E-10 -9.0802E-10  5.6129E-08
          37   2         1.2500E-03  4.5571E-08  5.1866E-08 -1.2487E-09  4.7782E-11  6.2424E-08
          37   3         1.2500E-03  5.1866E-08  4.5571E-08  4.7782E-11 -1.2487E-09  6.2424E-08
          37   4         1.2500E-03  4.7270E-08  4.7270E-08 -1.4175E-10 -1.4175E-10  6.8718E-08
          37   5         1.2500E-03  4.9380E-08  4.9380E-08  4.5641E-09  4.5641E-09  5.6561E-08
          37   6         1.2500E-03  4.5407E-08  5.1853E-08  4.2235E-09  7.5410E-09  6.3007E-08
          37   7         1.2500E-03  5.1853E-08  4.5407E-08  7.5410E-09  4.2235E-09  6.3007E-08
          37   8         1.2500E-03  4.7207E-08  4.7207E-08  7.3514E-09  7.3514E-09  6.9453E-08
          38   1         1.2500E-03  3.0716E-08  6.2407E-08 -5.1171E-10  9.7415E-10  7.4609E-08
          38   2         1.2500E-03  2.5352E-08  6.5379E-08 -4.4150E-10  2.5492E-09  7.8956E-08
          38   3         1.2500E-03  3.0502E-08  5.7846E-08  1.0962E-09  9.5165E-10  8.2945E-08
          38   4         1.2500E-03  2.4135E-08  5.9815E-08  1.3946E-09  2.8320E-09  8.7292E-08
          38   5         1.2500E-03  3.0771E-08  6.2368E-08  7.2444E-09  1.0309E-08  7.5589E-08
          38   6         1.2500E-03  2.5305E-08  6.5544E-08  7.3146E-09  1.4894E-08  8.0163E-08
          38   7         1.2500E-03  3.0709E-08  5.7732E-08  1.1863E-08  1.0286E-08  8.4230E-08
          38   8         1.2500E-03  2.4240E-08  5.9904E-08  1.2161E-08  1.5177E-08  8.8805E-08
          39   1         1.2500E-03  6.3056E-09  7.8409E-08  3.6593E-10  3.9290E-09  8.5319E-08
          39   2         1.2500E-03 -4.5834E-11  8.1620E-08  7.6587E-10  6.1235E-09  8.6523E-08
          39   3         1.2500E-03  2.1575E-09  7.3057E-08  2.6586E-09  4.4770E-09  9.4881E-08
          39   4         1.2500E-03 -5.4737E-09  7.4988E-08  3.2486E-09  7.0912E-09  9.6085E-08
          39   5         1.2500E-03  6.3895E-09  7.8641E-08  9.8578E-09  1.8781E-08  8.6995E-08
          39   6         1.2500E-03 -1.0176E-10  8.2132E-08  1.0258E-08  2.4815E-08  8.8389E-08
          39   7         1.2500E-03  2.3682E-09  7.3225E-08  1.5990E-08  1.9329E-08  9.6977E-08
          39   8         1.2500E-03 -5.4029E-09  7.5436E-08  1.6580E-08  2.5783E-08  9.8371E-08
          40   1         1.2500E-03 -2.1146E-08  9.5587E-08  1.2579E-09  7.8431E-09  8.4565E-08
          40   2         1.2500E-03 -2.7595E-08  9.8575E-08  1.7844E-09  1.0347E-08  8.1628E-08
          40   3         1.2500E-03 -3.0310E-08  8.9360E-08  3.9541E-09  9.1583E-09  9.4002E-08
          40   4         1.2500E-03 -3.8142E-08  9.0965E-08  4.5627E-09  1.2192E-08  9.1065E-08
          40   5         1.2500E-03 -2.1234E-08  9.6288E-08  1.1168E-08  2.9459E-08  8.6726E-08
          40   6         1.2500E-03 -2.7859E-08  9.9629E-08  1.1694E-08  3.6113E-08  8.3871E-08
          40   7         1.2500E-03 -3.0342E-08  9.0034E-08  1.8014E-08  3.0774E-08  9.6693E-08
          40   8         1.2500E-03 -3.8351E-08  9.1992E-08  1.8623E-08  3.7958E-08  9.3839E-08
          41   1         1.2500E-03 -4.7213E-08  1.1125E-07  1.5712E-09  1.2068E-08  6.9994E-08
          41   2         1.2500E-03 -5.2515E-08  1.1350E-07  2.0242E-09  1.4267E-08  6.2717E-08
          41   3         1.2501E-03 -6.1610E-08  1.0413E-07  4.1786E-09  1.4411E-08  7.7550E-08
          41   4         1.2501E-03 -6.8142E-08  1.0515E-07  4.5402E-09  1.7441E-08  7.0274E-08
          41   5         1.2500E-03 -4.7692E-08  1.1266E-07  9.9190E-09  4.0705E-08  7.2097E-08
          41   6         1.2500E-03 -5.3271E-08  1.1547E-07  1.0372E-08  4.6596E-08  6.4729E-08
          41   7         1.2501E-03 -6.2150E-08  1.0557E-07  1.6219E-08  4.3048E-08  8.0485E-08
          41   8         1.2501E-03 -6.8959E-08  1.0715E-07  1.6580E-08  4.9770E-08  7.3117E-08
          42   1         1.2500E-03 -6.6515E-08  1.2244E-07  1.0122E-09  1.5537E-08  4.2274E-08
          42   2         1.2501E-03 -6.9492E-08  1.2361E-07  1.3582E-09  1.6810E-08  3.1681E-08
          42   3         1.2501E-03 -8.5081E-08  1.1446E-07  2.8397E-09  1.9326E-08  4.6423E-08
          42   4         1.2501E-03 -8.8816E-08  1.1488E-07  2.8160E-09  2.1446E-08  3.5830E-08
          42   5         1.2500E-03 -6.7547E-08  1.2485E-07  5.7963E-09  5.0050E-08  4.3710E-08
          42   6         1.2500E-03 -7.0807E-08  1.2658E-07  6.1423E-09  5.3595E-08  3.2748E-08
          42   7         1.2501E-03 -8.6359E-08  1.1700E-07  9.8962E-09  5.3839E-08  4.8707E-08
          42   8         1.2501E-03 -9.0377E-08  1.1798E-07  9.8725E-09  5.8231E-08  3.7744E-08
          43   1         1.2501E-03 -7.4574E-08  1.2684E-07 -1.5372E-10  1.7276E-08  5.9118E-09
          43   2         1.2501E-03 -7.4574E-08  1.2684E-07  1.5372E-10  1.7276E-08 -5.9118E-09
          43   3         1.2501E-03 -9.4995E-08  1.1824E-07  1.2959E-10  2.2222E-08  5.9118E-09
          43   4         1.2501E-03 -9.4995E-08  1.1824E-07 -1.2959E-10  2.2222E-08 -5.9118E-09
          43   5         1.2501E-03 -7.6017E-08  1.3003E-07 -1.5372E-10  5.4893E-08  6.1951E-09
          43   6         1.2501E-03 -7.6017E-08  1.3003E-07  1.5372E-10  5.4893E-08 -6.1951E-09
          43   7         1.2501E-03 -9.6816E-08  1.2162E-07  1.2959E-10  5.9839E-08  6.1951E-09
          43   8         1.2501E-03 -9.6816E-08  1.2162E-07 -1.2959E-10  5.9839E-08 -6.1951E-09
          44   1         1.2501E-03 -6.9492E-08  1.2361E-07 -1.3582E-09  1.6810E-08 -3.1681E-08
          44   2         1.2500E-03 -6.6515E-08  1.2244E-07 -1.0122E-09  1.5537E-08 -4.2274E-08
          44   3         1.2501E-03 -8.8816E-08  1.1488E-07 -2.8160E-09  2.1446E-08 -3.5830E-08
          44   4         1.2501E-03 -8.5081E-08  1.1446E-07 -2.8397E-09  1.9326E-08 -4.6423E-08
          44   5         1.2500E-03 -7.0807E-08  1.2658E-07 -6.1423E-09  5.3595E-08 -3.2748E-08
          44   6         1.2500E-03 -6.7547E-08  1.2485E-07 -5.7963E-09  5.0050E-08 -4.3710E-08
          44   7         1.2501E-03 -9.0377E-08  1.1798E-07 -9.8725E-09  5.8231E-08 -3.7744E-08
          44   8         1.2501E-03 -8.6359E-08  1.1700E-07 -9.8962E-09  5.3839E-08 -4.8707E-08
          45   1         1.2500E-03 -5.2515E-08  1.1350E-07 -2.0242E-09  1.4267E-08 -6.2717E-08
          45   2         1.2500E-03 -4.7213E-08  1.1125E-07 -1.5712E-09  1.2068E-08 -6.9994E-08
          45   3         1.2501E-03 -6.8142E-08  1.0515E-07 -4.5402E-09  1.7441E-08 -7.0274E-08
          45   4         1.2501E-03 -6.1610E-08  1.0413E-07 -4.1786E-09  1.4411E-08 -7.7550E-08
          45   5         1.2500E-03 -5.3271E-08  1.1547E-07 -1.0372E-08  4.6596E-08 -6.4729E-08
          45   6         1.2500E-03 -4.7692E-08  1.1266E-07 -9.9190E-09  4.0705E-08 -7.2097E-08
          45   7         1.2501E-03 -6.8959E-08  1.0715E-07 -1.6580E-08  4.9770E-08 -7.3117E-08
          45   8         1.2501E-03 -6.2150E-08  1.0557E-07 -1.6219E-08  4.3048E-08 -8.0485E-08
          46   1         1.2500E-03 -2.7595E-08  9.8575E-08 -1.7844E-09  1.0347E-08 -8.1628E-08
          46   2         1.2500E-03 -2.1146E-08  9.5587E-08 -1.2579E-09  7.8431E-09 -8.4565E-08
          46   3         1.2500E-03 -3.8142E-08  9.0965E-08 -4.5627E-09  1.2192E-08 -9.1065E-08
          46   4         1.2500E-03 -3.0310E-08  8.9360E-08 -3.9541E-09  9.1583E-09 -9.4002E-08
          46   5         1.2500E-03 -2.7859E-08  9.9629E-08 -1.1694E-08  3.6113E-08 -8.3871E-08
          46   6         1.2500E-03 -2.1234E-08  9.6288E-08 -1.1168E-08  2.9459E-08 -8.6726E-08
          46   7         1.2500E-03 -3.8351E-08  9.1992E-08 -1.8623E-08  3.7958E-08 -9.3839E-08
          46   8         1.2500E-03 -3.0342E-08  9.0034E-08 -1.8014E-08  3.0774E-08 -9.6693E-08
          47   1         1.2500E-03 -4.5834E-11  8.1620E-08 -7.6587E-10  6.1235E-09 -8.6523E-08
          47   2         1.2500E-03  6.3056E-09  7.8409E-08 -3.6593E-10  3.9290E-09 -8.5319E-08
          47   3         1.2500E-03 -5.4737E-09  7.4988E-08 -3.2486E-09  7.0912E-09 -9.6085E-08
          47   4         1.2500E-03  2.1575E-09  7.3057E-08 -2.6586E-09  4.4770E-09 -9.4881E-08
          47   5         1.2500E-03 -1.0177E-10  8.2132E-08 -1.0258E-08  2.4815E-08 -8.8389E-08
          47   6         1.2500E-03  6.3895E-09  7.8641E-08 -9.8578E-09  1.8781E-08 -8.6995E-08
          47   7         1.2500E-03 -5.4029E-09  7.5436E-08 -1.6580E-08  2.5783E-08 -9.8371E-08
          47   8         1.2500E-03  2.3682E-09  7.3225E-08 -1.5990E-08  1.9329E-08 -9.6977E-08
          48   1         1.2500E-03  2.5352E-08  6.5379E-08  4.4150E-10  2.5492E-09 -7.8956E-08
          48   2         1.2500E-03  3.0716E-08  6.2407E-08  5.1171E-10  9.7415E-10 -7.4609E-08
          48   3         1.2500E-03  2.4135E-08  5.9815E-08 -1.3946E-09  2.8320E-09 -8.7292E-08
          48   4         1.2500E-03  3.0502E-08  5.7846E-08 -1.0962E-09  9.5165E-10 -8.2945E-08
          48   5         1.2500E-03  2.5305E-08  6.5544E-08 -7.3146E-09  1.4894E-08 -8.0163E-08
          48   6         1.2500E-03  3.0771E-08  6.2368E-08 -7.2444E-09  1.0309E-08 -7.5589E-08
          48   7         1.2500E-03  2.4240E-08  5.9904E-08 -1.2161E-08  1.5177E-08 -8.8805E-08
          48   8         1.2500E-03  3.0709E-08  5.7732E-08 -1.1863E-08  1.0286E-08 -8.4230E-08
          49   1         1.2500E-03  4.5571E-08  5.1866E-08  1.2487E-09  4.7782E-11 -6.2424E-08
          49   2         1.2500E-03  4.9494E-08  4.9494E-08  9.0802E-10 -9.0802E-10 -5.6129E-08
          49   3         1.2500E-03  4.7270E-08  4.7270E-08  1.4175E-10 -1.4175E-10 -6.8718E-08
          49   4         1.2500E-03  5.1866E-08  4.5571E-08 -4.7782E-11 -1.2487E-09 -6.2424E-08
          49   5         1.2500E-03  4.5407E-08  5.1853E-08 -4.2235E-09  7.5410E-09 -6.3007E-08
          49   6         1.2500E-03  4.9380E-08  4.9380E-08 -4.5641E-09  4.5641E-09 -5.6561E-08
          49   7         1.2500E-03  4.7207E-08  4.7207E-08 -7.3514E-09  7.3514E-09 -6.9453E-08
          49   8         1.2500E-03  5.1853E-08  4.5407E-08 -7.5410E-09  4.2235E-09 -6.3007E-08
          50   1         1.2500E-03  5.9349E-08  4.2256E-08  1.3717E-09 -1.4327E-09 -4.0616E-08
          50   2         1.2500E-03  6.1690E-08  4.0739E-08  6.7168E-10 -1.9104E-09 -3.3356E-08
          50   3         1.2500E-03  6.2749E-08  3.8396E-08  8.2574E-10 -1.8517E-09 -4.4473E-08
          50   4         1.2500E-03  6.5464E-08  3.7254E-08  1.9770E-10 -2.3921E-09 -3.7214E-08
          50   5         1.2500E-03  5.9022E-08  4.2210E-08 -1.7930E-09  2.8882E-09 -4.0816E-08
          50   6         1.2500E-03  6.1384E-08  4.0651E-08 -2.4930E-09  1.2861E-09 -3.3485E-08
          50   7         1.2500E-03  6.2470E-08  3.8326E-08 -3.4633E-09  2.4692E-09 -4.4736E-08
          50   8         1.2500E-03  6.5206E-08  3.7142E-08 -4.0914E-09  8.0438E-10 -3.7405E-08
          51   1         1.2500E-03  6.6529E-08  3.7092E-08  8.6613E-10 -2.1362E-09 -1.6331E-08
          51   2         1.2500E-03  6.7301E-08  3.6572E-08 -4.2519E-11 -2.2756E-09 -8.7173E-09
          51   3         1.2500E-03  7.0720E-08  3.3670E-08  7.0746E-10 -2.6472E-09 -1.7623E-08
          51   4         1.2500E-03  7.1611E-08  3.3268E-08 -1.8035E-10 -2.8036E-09 -1.0010E-08
          51   5         1.2500E-03  6.6094E-08  3.7055E-08 -1.5868E-10  5.1850E-10 -1.6369E-08
          51   6         1.2500E-03  6.6872E-08  3.6523E-08 -1.0673E-09  2.3429E-11 -8.7340E-09
          51   7         1.2500E-03  7.0298E-08  3.3625E-08 -6.7307E-10  7.5594E-12 -1.7678E-08
          51   8         1.2500E-03  7.1195E-08  3.3212E-08 -1.5609E-09 -5.0460E-10 -1.0043E-08
          52   1         1.2500E-03  8.1907E-08  2.0643E-08  3.0766E-10 -2.7662E-09  1.1594E-08
          52   2         1.2500E-03  8.1056E-08  2.0649E-08 -5.4921E-10 -2.5379E-09  2.1386E-08
          52   3         1.2500E-03  8.7389E-08  1.6333E-08  5.1766E-10 -2.9740E-09  1.2452E-08
          52   4         1.2500E-03  8.6368E-08  1.6169E-08 -2.7552E-10 -2.7211E-09  2.2243E-08
          52   5         1.2500E-03  8.1405E-08  2.0790E-08  2.0051E-09  3.7108E-10  1.1659E-08
          52   6         1.2500E-03  8.0545E-08  2.0812E-08  1.1482E-09  1.1093E-09  2.1514E-08
          52   7         1.2500E-03  8.6930E-08  1.6459E-08  2.7251E-09  1.6320E-10  1.2541E-08
          52   8         1.2500E-03  8.5900E-08  1.6311E-08  1.9319E-09  9.2621E-10  2.2397E-08
          53   1         1.2500E-03  7.5907E-08  2.3979E-08  2.5374E-10 -2.1682E-09  4.4146E-08
          53   2         1.2500E-03  7.3276E-08  2.3945E-08 -2.9488E-10 -1.3864E-09  5.3582E-08
          53   3         1.2500E-03  8.0721E-08  1.9357E-08  1.0131E-09 -2.3083E-09  4.6743E-08
          53   4         1.2500E-03  7.7547E-08  1.8780E-08  6.0951E-10 -1.4337E-09  5.6180E-08
          53   5         1.2500E-03  7.5588E-08  2.4069E-08  5.5503E-09  2.2617E-09  4.4495E-08
          53   6         1.2500E-03  7.2926E-08  2.4097E-08  5.0017E-09  4.6718E-09  5.4076E-08
          53   7         1.2500E-03  8.0499E-08  1.9398E-08  7.9380E-09  2.1216E-09  4.7185E-08
          53   8         1.2500E-03  7.7294E-08  1.8883E-08  7.5344E-09  4.6245E-09  5.6767E-08
          54   1         1.2500E-03  6.2407E-08  3.0716E-08  9.7415E-10 -5.1171E-10  7.4609E-08
          54   2         1.2500E-03  5.7846E-08  3.0502E-08  9.5165E-10  1.0962E-09  8.2945E-08
          54   3         1.2500E-03  6.5379E-08  2.5352E-08  2.5492E-09 -4.4150E-10  7.8956E-08
          54   4         1.2500E-03  5.9815E-08  2.4135E-08  2.8320E-09  1.3946E-09  8.7292E-08
          54   5         1.2500E-03  6.2368E-08  3.0771E-08  1.0309E-08  7.2444E-09  7.5589E-08
          54   6         1.2500E-03  5.7732E-08  3.0709E-08  1.0286E-08  1.1863E-08  8.4230E-08
          54   7         1.2500E-03  6.5544E-08  2.5305E-08  1.4894E-08  7.3146E-09  8.0163E-08
          54   8         1.2500E-03  5.9904E-08  2.4240E-08  1.5177E-08  1.2161E-08  8.8805E-08
          55   1         1.2500E-03  4.0679E-08  4.0679E-08  2.6739E-09  2.6739E-09  9.9837E-08
          55   2         1.2500E-03  3.4183E-08  4.0129E-08  3.1956E-09  5.3765E-09  1.0578E-07
          55   3         1.2500E-03  4.0129E-08  3.4183E-08  5.3765E-09  3.1956E-09  1.0578E-07
          55   4         1.2500E-03  3.2110E-08  3.2110E-08  6.2801E-09  6.2801E-09  1.1173E-07
          55   5         1.2500E-03  4.0853E-08  4.0853E-08  1.6215E-08  1.6215E-08  1.0190E-07
          55   6         1.2500E-03  3.4230E-08  4.0557E-08  1.6737E-08  2.3487E-08  1.0822E-07
          55   7         1.2500E-03  4.0557E-08  3.4230E-08  2.3487E-08  1.6737E-08  1.0822E-07
          55   8         1.2500E-03  3.2411E-08  3.2411E-08  2.4391E-08  2.4391E-08  1.1455E-07
          56   1         1.2500E-03  1.1134E-08  5.3136E-08  4.9190E-09  7.7497E-09  1.1503E-07
          56   2         1.2500E-03  3.1605E-09  5.2162E-08  5.7243E-09  1.1531E-08  1.1688E-07
          56   3         1.2500E-03  5.0445E-09  4.5197E-08  8.8017E-09  9.0262E-09  1.2203E-07
          56   4         1.2501E-03 -4.9196E-09  4.2232E-08  1.0005E-08  1.3445E-08  1.2388E-07
          56   5         1.2500E-03  1.1246E-08  5.3719E-08  2.1841E-08  2.9718E-08  1.1832E-07
          56   6         1.2500E-03  3.0594E-09  5.3169E-08  2.2646E-08  3.9470E-08  1.2057E-07
          56   7         1.2500E-03  5.4213E-09  4.5647E-08  3.1695E-08  3.0995E-08  1.2596E-07
          56   8         1.2501E-03 -4.7552E-09  4.3107E-08  3.2898E-08  4.1384E-08  1.2821E-07
          57   1         1.2501E-03 -2.3405E-08  6.6545E-08  6.6612E-09  1.4529E-08  1.1475E-07
          57   2         1.2501E-03 -3.1767E-08  6.5276E-08  7.3437E-09  1.8939E-08  1.1108E-07
          57   3         1.2501E-03 -3.6697E-08  5.6921E-08  1.1361E-08  1.6963E-08  1.2185E-07
          57   4         1.2501E-03 -4.7259E-08  5.3453E-08  1.2163E-08  2.2157E-08  1.1818E-07
          57   5         1.2501E-03 -2.3761E-08  6.7940E-08  2.4656E-08  4.7069E-08  1.1903E-07
          57   6         1.2501E-03 -3.2385E-08  6.7194E-08  2.5338E-08  5.8078E-08  1.1548E-07
          57   7         1.2501E-03 -3.6974E-08  5.8276E-08  3.5954E-08  4.9503E-08  1.2691E-07
          57   8         1.2501E-03 -4.7797E-08  5.5331E-08  3.6756E-08  6.1296E-08  1.2336E-07
          58   1         1.2501E-03 -5.7338E-08  7.8660E-08  6.7460E-09  2.2074E-08  9.5384E-08
          58   2         1.2501E-03 -6.4504E-08  7.7511E-08  6.9438E-09  2.6229E-08  8.5827E-08
          58   3         1.2501E-03 -7.8257E-08  6.7298E-08  1.1153E-08  2.5661E-08  1.0140E-07
          58   4         1.2501E-03 -8.7326E-08  6.4246E-08  1.0995E-08  3.0040E-08  9.1845E-08
          58   5         1.2501E-03 -5.8401E-08  8.0986E-08  2.2227E-08  6.5718E-08  9.9766E-08
          58   6         1.2501E-03 -6.5642E-08  7.9986E-08  2.2425E-08  7.5582E-08  8.9853E-08
          58   7         1.2501E-03 -7.9558E-08  6.9742E-08  3.2344E-08  6.9305E-08  1.0601E-07
          58   8         1.2501E-03 -8.8702E-08  6.6840E-08  3.2185E-08  7.9393E-08  9.6095E-08
          59   1         1.2501E-03 -8.3314E-08  8.7082E-08  4.5170E-09  2.8710E-08  5.7700E-08
          59   2         1.2501E-03 -8.7534E-08  8.6450E-08  4.0992E-09  3.1333E-08  4.3539E-08
          59   3         1.2502E-03 -1.1030E-07  7.4260E-08  7.2721E-09  3.2445E-08  6.1288E-08
          59   4         1.2502E-03 -1.1559E-07  7.2551E-08  6.1473E-09  3.4637E-08  4.7127E-08
          59   5         1.2501E-03 -8.4837E-08  8.9711E-08  1.3588E-08  8.1336E-08  6.0712E-08
          59   6         1.2501E-03 -8.8913E-08  8.8792E-08  1.3170E-08  8.7191E-08  4.5844E-08
          59   7         1.2502E-03 -1.1229E-07  7.7125E-08  1.9575E-08  8.5071E-08  6.3869E-08
          59   8         1.2502E-03 -1.1744E-07  7.5129E-08  1.8450E-08  9.0494E-08  4.9001E-08
          60   1         1.2501E-03 -9.4495E-08  8.9930E-08  3.6142E-10  3.2293E-08  7.9735E-09
          60   2         1.2501E-03 -9.4495E-08  8.9930E-08 -3.6142E-10  3.2293E-08 -7.9735E-09
          60   3         1.2502E-03 -1.2414E-07  7.6232E-08  7.1146E-10  3.5439E-08  7.9735E-09
          60   4         1.2502E-03 -1.2414E-07  7.6232E-08 -7.1146E-10  3.5439E-08 -7.9735E-09
          60   5         1.2501E-03 -9.6025E-08  9.2268E-08  3.6142E-10  8.9334E-08  8.3236E-09
          60   6         1.2501E-03 -9.6025E-08  9.2268E-08 -3.6142E-10  8.9334E-08 -8.3236E-09
          60   7         1.2502E-03 -1.2614E-07  7.8803E-08  7.1146E-10  9.2479E-08  8.3236E-09
          60   8         1.2502E-03 -1.2614E-07  7.8803E-08 -7.1146E-10  9.2479E-08 -8.3236E-09
          61   1         1.2501E-03 -8.7534E-08  8.6450E-08 -4.0992E-09  3.1333E-08 -4.3539E-08
          61   2         1.2501E-03 -8.3314E-08  8.7082E-08 -4.5170E-09  2.8710E-08 -5.7700E-08
          61   3         1.2502E-03 -1.1559E-07  7.2551E-08 -6.1473E-09  3.4637E-08 -4.7127E-08
          61   4         1.2502E-03 -1.1030E-07  7.4260E-08 -7.2721E-09  3.2445E-08 -6.1288E-08
          61   5         1.2501E-03 -8.8913E-08  8.8792E-08 -1.3170E-08  8.7191E-08 -4.5844E-08
          61   6         1.2501E-03 -8.4837E-08  8.9711E-08 -1.3588E-08  8.1336E-08 -6.0712E-08
          61   7         1.2502E-03 -1.1744E-07  7.5129E-08 -1.8450E-08  9.0494E-08 -4.9001E-08
          61   8         1.2502E-03 -1.1229E-07  7.7125E-08 -1.9575E-08  8.5071E-08 -6.3869E-08
          62   1         1.2501E-03 -6.4504E-08  7.7511E-08 -6.9438E-09  2.6229E-08 -8.5827E-08
          62   2         1.2501E-03 -5.7338E-08  7.8660E-08 -6.7460E-09  2.2074E-08 -9.5384E-08
          62   3         1.2501E-03 -8.7326E-08  6.4246E-08 -1.0995E-08  3.0040E-08 -9.1845E-08
          62   4         1.2501E-03 -7.8257E-08  6.7298E-08 -1.1153E-08  2.5661E-08 -1.0140E-07
          62   5         1.2501E-03 -6.5642E-08  7.9986E-08 -2.2425E-08  7.5582E-08 -8.9853E-08
          62   6         1.2501E-03 -5.8401E-08  8.0986E-08 -2.2227E-08  6.5718E-08 -9.9766E-08
          62   7         1.2501E-03 -8.8702E-08  6.6840E-08 -3.2185E-08  7.9393E-08 -9.6095E-08
          62   8         1.2501E-03 -7.9558E-08  6.9742E-08 -3.2344E-08  6.9305E-08 -1.0601E-07
          63   1         1.2501E-03 -3.1767E-08  6.5276E-08 -7.3437E-09  1.8939E-08 -1.1108E-07
          63   2         1.2501E-03 -2.3405E-08  6.6545E-08 -6.6612E-09  1.4529E-08 -1.1475E-07
          63   3         1.2501E-03 -4.7259E-08  5.3453E-08 -1.2163E-08  2.2157E-08 -1.1818E-07
          63   4         1.2501E-03 -3.6697E-08  5.6921E-08 -1.1361E-08  1.6963E-08 -1.2185E-07
          63   5         1.2501E-03 -3.2385E-08  6.7194E-08 -2.5338E-08  5.8078E-08 -1.1548E-07
          63   6         1.2501E-03 -2.3761E-08  6.7940E-08 -2.4656E-08  4.7069E-08 -1.1903E-07
          63   7         1.2501E-03 -4.7797E-08  5.5331E-08 -3.6756E-08  6.1296E-08 -1.2336E-07
          63   8         1.2501E-03 -3.6974E-08  5.8276E-08 -3.5954E-08  4.9503E-08 -1.2691E-07
          64   1         1.2500E-03  3.1605E-09  5.2162E-08 -5.7243E-09  1.1531E-08 -1.1688E-07
          64   2         1.2500E-03  1.1134E-08  5.3136E-08 -4.9190E-09  7.7497E-09 -1.1503E-07
          64   3         1.2501E-03 -4.9196E-09  4.2232E-08 -1.0005E-08  1.3445E-08 -1.2388E-07
          64   4         1.2500E-03  5.0445E-09  4.5197E-08 -8.8017E-09  9.0262E-09 -1.2203E-07
          64   5         1.2500E-03  3.0594E-09  5.3169E-08 -2.2646E-08  3.9470E-08 -1.2057E-07
          64   6         1.2500E-03  1.1246E-08  5.3719E-08 -2.1841E-08  2.9718E-08 -1.1832E-07
          64   7         1.2501E-03 -4.7552E-09  4.3107E-08 -3.2898E-08  4.1384E-08 -1.2821E-07
          64   8         1.2500E-03  5.4213E-09  4.5647E-08 -3.1695E-08  3.0995E-08 -1.2596E-07
          65   1         1.2500E-03  3.4183E-08  4.0129E-08 -3.1956E-09  5.3765E-09 -1.0578E-07
          65   2         1.2500E-03  4.0679E-08  4.0679E-08 -2.6739E-09  2.6739E-09 -9.9837E-08
          65   3         1.2500E-03  3.2110E-08  3.2110E-08 -6.2801E-09  6.2801E-09 -1.1173E-07
          65   4         1.2500E-03  4.0129E-08  3.4183E-08 -5.3765E-09  3.1956E-09 -1.0578E-07
          65   5         1.2500E-03  3.4230E-08  4.0557E-08 -1.6737E-08  2.3487E-08 -1.0822E-07
          65   6         1.2500E-03  4.0853E-08  4.0853E-08 -1.6215E-08  1.6215E-08 -1.0190E-07
          65   7         1.2500E-03  3.2411E-08  3.2411E-08 -2.4391E-08  2.4391E-08 -1.1455E-07
          65   8         1.2500E-03  4.0557E-08  3.4230E-08 -2.3487E-08  1.6737E-08 -1.0822E-07
          66   1         1.2500E-03  5.7846E-08  3.0502E-08 -9.5165E-10  1.0962E-09 -8.2945E-08
          66   2         1.2500E-03  6.2407E-08  3.0716E-08 -9.7415E-10 -5.1171E-10 -7.4609E-08
          66   3         1.2500E-03  5.9815E-08  2.4135E-08 -2.8320E-09  1.3946E-09 -8.7292E-08
          66   4         1.2500E-03  6.5379E-08  2.5352E-08 -2.5492E-09 -4.4150E-10 -7.8956E-08
          66   5         1.2500E-03  5.7732E-08  3.0709E-08 -1.0286E-08  1.1863E-08 -8.4230E-08
          66   6         1.2500E-03  6.2368E-08  3.0771E-08 -1.0309E-08  7.2444E-09 -7.5589E-08
          66   7         1.2500E-03  5.9904E-08  2.4240E-08 -1.5177E-08  1.2161E-08 -8.8805E-08
          66   8         1.2500E-03  6.5544E-08  2.5305E-08 -1.4894E-08  7.3146E-09 -8.0163E-08
          67   1         1.2500E-03  7.3276E-08  2.3945E-08  2.9488E-10 -1.3864E-09 -5.3582E-08
          67   2         1.2500E-03  7.5907E-08  2.3979E-08 -2.5374E-10 -2.1682E-09 -4.4146E-08
          67   3         1.2500E-03  7.7547E-08  1.8780E-08 -6.0951E-10 -1.4337E-09 -5.6180E-08
          67   4         1.2500E-03  8.0721E-08  1.9357E-08 -1.0131E-09 -2.3083E-09 -4.6743E-08
          67   5         1.2500E-03  7.2926E-08  2.4097E-08 -5.0017E-09  4.6718E-09 -5.4076E-08
          67   6         1.2500E-03  7.5588E-08  2.4069E-08 -5.5503E-09  2.2617E-09 -4.4495E-08
          67   7         1.2500E-03  7.7294E-08  1.8883E-08 -7.5344E-09  4.6245E-09 -5.6767E-08
          67   8         1.2500E-03  8.0499E-08  1.9398E-08 -7.9380E-09  2.1216E-09 -4.7185E-08
          68   1         1.2500E-03  8.1056E-08  2.0649E-08  5.4921E-10 -2.5379E-09 -2.1386E-08
          68   2         1.2500E-03  8.1907E-08  2.0643E-08 -3.0766E-10 -2.7662E-09 -1.1594E-08
          68   3         1.2500E-03  8.6368E-08  1.6169E-08  2.7552E-10 -2.7211E-09 -2.2243E-08
          68   4         1.2500E-03  8.7389E-08  1.6333E-08 -5.1766E-10 -2.9740E-09 -1.2452E-08
          68   5         1.2500E-03  8.0545E-08  2.0812E-08 -1.1482E-09  1.1093E-09 -2.1514E-08
          68   6         1.2500E-03  8.1405E-08  2.0790E-08 -2.0051E-09  3.7108E-10 -1.1659E-08
          68   7         1.2500E-03  8.5900E-08  1.6311E-08 -1.9319E-09  9.2621E-10 -2.2397E-08
          68   8         1.2500E-03  8.6930E-08  1.6459E-08 -2.7251E-09  1.6320E-10 -1.2541E-08
          69   1         1.2500E-03  9.9672E-08  9.8367E-10  6.9221E-10 -2.8002E-09  1.3235E-08
          69   2         1.2500E-03  9.8733E-08  2.3987E-10 -3.8322E-11 -2.4906E-09  2.4113E-08
          69   3         1.2500E-03  1.0569E-07 -3.8727E-09  9.5908E-10 -2.6708E-09  1.3430E-08
          69   4         1.2500E-03  1.0455E-07 -4.8237E-09  3.3603E-10 -2.3427E-09  2.4309E-08
          69   5         1.2500E-03  9.9141E-08  1.3135E-09  3.3139E-09  8.9026E-10  1.3356E-08
          69   6         1.2500E-03  9.8196E-08  5.8201E-10  2.5834E-09  1.8215E-09  2.4342E-08
          69   7         1.2500E-03  1.0524E-07 -3.5787E-09  4.2024E-09  1.0197E-09  1.3570E-08
          69   8         1.2500E-03  1.0408E-07 -4.5174E-09  3.5793E-09  1.9695E-09  2.4556E-08
          70   1         1.2500E-03  9.3327E-08  2.9421E-09  1.6683E-09 -1.9749E-09  5.0230E-08
          70   2         1.2500E-03  9.0360E-08  6.0629E-10  1.4128E-09 -8.7560E-10  6.0821E-08
          70   3         1.2500E-03  9.8624E-08 -2.3513E-09  2.6990E-09 -1.7831E-09  5.0862E-08
          70   4         1.2500E-03  9.4974E-08 -5.3697E-09  2.7029E-09 -5.8235E-10  6.1452E-08
          70   5         1.2500E-03  9.3093E-08  3.1551E-09  9.9388E-09  3.3143E-09  5.0861E-08
          70   6         1.2500E-03  9.0091E-08  8.8698E-10  9.6832E-09  6.4614E-09  6.1711E-08
          70   7         1.2500E-03  9.8563E-08 -2.2247E-09  1.3017E-08  3.5062E-09  5.1594E-08
          70   8         1.2500E-03  9.4879E-08 -5.1755E-09  1.3021E-08  6.7547E-09  6.2444E-08
          71   1         1.2500E-03  7.8409E-08  6.3056E-09  3.9290E-09  3.6593E-10  8.5319E-08
          71   2         1.2500E-03  7.3057E-08  2.1575E-09  4.4770E-09  2.6586E-09  9.4881E-08
          71   3         1.2500E-03  8.1620E-08 -4.5834E-11  6.1235E-09  7.6587E-10  8.6523E-08
          71   4         1.2500E-03  7.4988E-08 -5.4737E-09  7.0912E-09  3.2486E-09  9.6085E-08
          71   5         1.2500E-03  7.8641E-08  6.3895E-09  1.8781E-08  9.8578E-09  8.6995E-08
          71   6         1.2500E-03  7.3225E-08  2.3682E-09  1.9329E-08  1.5990E-08  9.6977E-08
          71   7         1.2500E-03  8.2132E-08 -1.0177E-10  2.4815E-08  1.0258E-08  8.8389E-08
          71   8         1.2500E-03  7.5436E-08 -5.4029E-09  2.5783E-08  1.6580E-08  9.8371E-08
          72   1         1.2500E-03  5.3136E-08  1.1134E-08  7.7497E-09  4.9190E-09  1.1503E-07
          72   2         1.2500E-03  4.5197E-08  5.0445E-09  9.0262E-09  8.8017E-09  1.2203E-07
          72   3         1.2500E-03  5.2162E-08  3.1605E-09  1.1531E-08  5.7243E-09  1.1688E-07
          72   4         1.2501E-03  4.2232E-08 -4.9196E-09  1.3445E-08  1.0005E-08  1.2388E-07
          72   5         1.2500E-03  5.3719E-08  1.1246E-08  2.9718E-08  2.1841E-08  1.1832E-07
          72   6         1.2500E-03  4.5647E-08  5.4213E-09  3.0995E-08  3.1695E-08  1.2596E-07
          72   7         1.2500E-03  5.3169E-08  3.0594E-09  3.9470E-08  2.2646E-08  1.2057E-07
          72   8         1.2501E-03  4.3107E-08 -4.7552E-09  4.1384E-08  3.2898E-08  1.2821E-07
          73   1         1.2501E-03  1.7077E-08  1.7077E-08  1.2261E-08  1.2261E-08  1.3353E-07
          73   2         1.2501E-03  6.9329E-09  9.3781E-09  1.3804E-08  1.7828E-08  1.3598E-07
          73   3         1.2501E-03  9.3781E-09  6.9329E-09  1.7828E-08  1.3804E-08  1.3598E-07
          73   4         1.2501E-03 -3.4131E-09 -3.4131E-09  1.9900E-08  1.9900E-08  1.3842E-07
          73   5         1.2501E-03  1.7591E-08  1.7591E-08  4.0246E-08  4.0246E-08  1.3885E-07
          73   6         1.2501E-03  7.2708E-09  1.0245E-08  4.1789E-08  5.3756E-08  1.4183E-07
          73   7         1.2501E-03  1.0245E-08  7.2708E-09  5.3756E-08  4.1789E-08  1.4183E-07
          73   8         1.2501E-03 -2.7223E-09 -2.7223E-09  5.5829E-08  5.5829E-08  1.4480E-07
          74   1         1.2501E-03 -2.6810E-08  2.3186E-08  1.5525E-08  2.2247E-08  1.3418E-07
          74   2         1.2501E-03 -3.7782E-08  1.4893E-08  1.6435E-08  2.8752E-08  1.3020E-07
          74   3         1.2502E-03 -4.3480E-08  1.0488E-08  2.2202E-08  2.4723E-08  1.3685E-07
          74   4         1.2502E-03 -5.7392E-08 -7.4555E-10  2.3287E-08  3.1803E-08  1.3288E-07
          74   5         1.2501E-03 -2.7030E-08  2.4534E-08  4.5762E-08  6.4311E-08  1.4090E-07
          74   6         1.2501E-03 -3.8193E-08  1.6624E-08  4.6672E-08  7.9638E-08  1.3710E-07
          74   7         1.2502E-03 -4.3582E-08  1.1778E-08  6.1260E-08  6.6788E-08  1.4415E-07
          74   8         1.2502E-03 -5.7686E-08  9.2689E-10  6.2345E-08  8.2690E-08  1.4036E-07
          75   1         1.2502E-03 -7.1071E-08  2.8107E-08  1.5124E-08  3.3223E-08  1.1223E-07
          75   2         1.2502E-03 -8.0508E-08  2.0809E-08  1.4698E-08  3.8933E-08  1.0131E-07
          75   3         1.2502E-03 -9.7351E-08  1.2743E-08  2.1566E-08  3.6931E-08  1.1436E-07
          75   4         1.2502E-03 -1.0942E-07  2.8109E-09  2.0764E-08  4.3862E-08  1.0345E-07
          75   5         1.2502E-03 -7.2591E-08  3.0722E-08  4.1296E-08  9.0231E-08  1.1859E-07
          75   6         1.2502E-03 -8.2435E-08  2.4237E-08  4.0870E-08  1.0384E-07  1.0730E-07
          75   7         1.2502E-03 -9.9121E-08  1.5483E-08  5.5639E-08  9.3939E-08  1.2195E-07
          75   8         1.2502E-03 -1.1160E-07  6.3642E-09  5.4837E-08  1.0877E-07  1.1066E-07
          76   1         1.2502E-03 -1.0517E-07  3.0463E-08  9.9062E-09  4.2199E-08  6.8147E-08
          76   2         1.2502E-03 -1.1060E-07  2.6062E-08  8.1515E-09  4.5411E-08  5.1761E-08
          76   3         1.2503E-03 -1.3929E-07  1.2733E-08  1.4348E-08  4.8160E-08  6.9177E-08
          76   4         1.2503E-03 -1.4633E-07  6.7139E-09  1.1579E-08  5.2968E-08  5.2790E-08
          76   5         1.2502E-03 -1.0833E-07  3.5022E-08  2.5169E-08  1.1178E-07  7.2248E-08
          76   6         1.2502E-03 -1.1429E-07  3.1685E-08  2.3414E-08  1.1984E-07  5.4847E-08
          76   7         1.2503E-03 -1.4312E-07  1.7629E-08  3.4464E-08  1.1774E-07  7.4874E-08
          76   8         1.2503E-03 -1.5070E-07  1.2675E-08  3.1695E-08  1.2740E-07  5.7474E-08
          77   1         1.2502E-03 -1.1971E-07  2.9632E-08  1.1101E-09  4.6586E-08  9.2025E-09
          77   2         1.2502E-03 -1.1971E-07  2.9632E-08 -1.1101E-09  4.6586E-08 -9.2025E-09
          77   3         1.2503E-03 -1.5738E-07  1.0365E-08  1.8492E-09  5.4729E-08  9.2025E-09
          77   4         1.2503E-03 -1.5738E-07  1.0365E-08 -1.8492E-09  5.4729E-08 -9.2025E-09
          77   5         1.2502E-03 -1.2391E-07  3.5801E-08  1.1101E-09  1.2279E-07  9.9416E-09
          77   6         1.2502E-03 -1.2391E-07  3.5801E-08 -1.1101E-09  1.2279E-07 -9.9416E-09
          77   7         1.2503E-03 -1.6256E-07  1.7026E-08  1.8492E-09  1.3094E-07  9.9416E-09
          77   8         1.2503E-03 -1.6256E-07  1.7026E-08 -1.8492E-09  1.3094E-07 -9.9416E-09
          78   1         1.2502E-03 -1.1060E-07  2.6062E-08 -8.1515E-09  4.5411E-08 -5.1761E-08
          78   2         1.2502E-03 -1.0517E-07  3.0463E-08 -9.9062E-09  4.2199E-08 -6.8147E-08
          78   3         1.2503E-03 -1.4633E-07  6.7139E-09 -1.1579E-08  5.2968E-08 -5.2790E-08
          78   4         1.2503E-03 -1.3929E-07  1.2733E-08 -1.4348E-08  4.8160E-08 -6.9177E-08
          78   5         1.2502E-03 -1.1429E-07  3.1685E-08 -2.3414E-08  1.1984E-07 -5.4847E-08
          78   6         1.2502E-03 -1.0833E-07  3.5022E-08 -2.5169E-08  1.1178E-07 -7.2248E-08
          78   7         1.2503E-03 -1.5070E-07  1.2675E-08 -3.1695E-08  1.2740E-07 -5.7474E-08
          78   8         1.2503E-03 -1.4312E-07  1.7629E-08 -3.4464E-08  1.1774E-07 -7.4874E-08
          79   1         1.2502E-03 -8.0508E-08  2.0809E-08 -1.4698E-08  3.8933E-08 -1.0131E-07
          79   2         1.2502E-03 -7.1071E-08  2.8107E-08 -1.5124E-08  3.3223E-08 -1.1223E-07
          79   3         1.2502E-03 -1.0942E-07  2.8109E-09 -2.0764E-08  4.3862E-08 -1.0345E-07
          79   4         1.2502E-03 -9.7351E-08  1.2743E-08 -2.1566E-08  3.6931E-08 -1.1436E-07
          79   5         1.2502E-03 -8.2435E-08  2.4237E-08 -4.0870E-08  1.0384E-07 -1.0730E-07
          79   6         1.2502E-03 -7.2591E-08  3.0722E-08 -4.1296E-08  9.0231E-08 -1.1859E-07
          79   7         1.2502E-03 -1.1160E-07  6.3642E-09 -5.4837E-08  1.0877E-07 -1.1066E-07
          79   8         1.2502E-03 -9.9121E-08  1.5483E-08 -5.5639E-08  9.3939E-08 -1.2195E-07
          80   1         1.2501E-03 -3.7782E-08  1.4893E-08 -1.6435E-08  2.8752E-08 -1.3020E-07
          80   2         1.2501E-03 -2.6810E-08  2.3186E-08 -1.5525E-08  2.2247E-08 -1.3418E-07
          80   3         1.2502E-03 -5.7392E-08 -7.4555E-10 -2.3287E-08  3.1803E-08 -1.3288E-07
          80   4         1.2502E-03 -4.3480E-08  1.0488E-08 -2.2202E-08  2.4723E-08 -1.3685E-07
          80   5         1.2501E-03 -3.8193E-08  1.6624E-08 -4.6672E-08  7.9638E-08 -1.3710E-07
          80   6         1.2501E-03 -2.7030E-08  2.4534E-08 -4.5762E-08  6.4311E-08 -1.4090E-07
          80   7         1.2502E-03 -5.7686E-08  9.2689E-10 -6.2345E-08  8.2690E-08 -1.4036E-07
          80   8         1.2502E-03 -4.3582E-08  1.1778E-08 -6.1260E-08  6.6788E-08 -1.4415E-07
          81   1         1.2501E-03  6.9329E-09  9.3781E-09 -1.3804E-08  1.7828E-08 -1.3598E-07
          81   2         1.2501E-03  1.7077E-08  1.7077E-08 -1.2261E-08  1.2261E-08 -1.3353E-07
          81   3         1.2501E-03 -3.4131E-09 -3.4131E-09 -1.9900E-08  1.9900E-08 -1.3842E-07
          81   4         1.2501E-03  9.3781E-09  6.9329E-09 -1.7828E-08  1.3804E-08 -1.3598E-07
          81   5         1.2501E-03  7.2708E-09  1.0245E-08 -4.1789E-08  5.3756E-08 -1.4183E-07
          81   6         1.2501E-03  1.7591E-08  1.7591E-08 -4.0246E-08  4.0246E-08 -1.3885E-07
          81   7         1.2501E-03 -2.7223E-09 -2.7223E-09 -5.5829E-08  5.5829E-08 -1.4480E-07
          81   8         1.2501E-03  1.0245E-08  7.2708E-09 -5.3756E-08  4.1789E-08 -1.4183E-07
          82   1         1.2500E-03  4.5197E-08  5.0445E-09 -9.0262E-09  8.8017E-09 -1.2203E-07
          82   2         1.2500E-03  5.3136E-08  1.1134E-08 -7.7497E-09  4.9190E-09 -1.1503E-07
          82   3         1.2501E-03  4.2232E-08 -4.9196E-09 -1.3445E-08  1.0005E-08 -1.2388E-07
          82   4         1.2500E-03  5.2162E-08  3.1605E-09 -1.1531E-08  5.7243E-09 -1.1688E-07
          82   5         1.2500E-03  4.5647E-08  5.4213E-09 -3.0995E-08  3.1695E-08 -1.2596E-07
          82   6         1.2500E-03  5.3719E-08  1.1246E-08 -2.9718E-08  2.1841E-08 -1.1832E-07
          82   7         1.2501E-03  4.3107E-08 -4.7552E-09 -4.1384E-08  3.2898E-08 -1.2821E-07
          82   8         1.2500E-03  5.3169E-08  3.0594E-09 -3.9470E-08  2.2646E-08 -1.2057E-07
          83   1         1.2500E-03  7.3057E-08  2.1575E-09 -4.4770E-09  2.6586E-09 -9.4881E-08
          83   2         1.2500E-03  7.8409E-08  6.3056E-09 -3.9290E-09  3.6593E-10 -8.5319E-08
          83   3         1.2500E-03  7.4988E-08 -5.4737E-09 -7.0912E-09  3.2486E-09 -9.6085E-08
          83   4         1.2500E-03  8.1620E-08 -4.5834E-11 -6.1235E-09  7.6587E-10 -8.6523E-08
          83   5         1.2500E-03  7.3225E-08  2.3682E-09 -1.9329E-08  1.5990E-08 -9.6977E-08
          83   6         1.2500E-03  7.8641E-08  6.3895E-09 -1.8781E-08  9.8578E-09 -8.6995E-08
          83   7         1.2500E-03  7.5436E-08 -5.4029E-09 -2.5783E-08  1.6580E-08 -9.8371E-08
          83   8         1.2500E-03  8.2132E-08 -1.0177E-10 -2.4815E-08  1.0258E-08 -8.8389E-08
          84   1         1.2500E-03  9.0360E-08  6.0629E-10 -1.4128E-09 -8.7560E-10 -6.0821E-08
          84   2         1.2500E-03  9.3327E-08  2.9421E-09 -1.6683E-09 -1.9749E-09 -5.0230E-08
          84   3         1.2500E-03  9.4974E-08 -5.3697E-09 -2.7029E-09 -5.8235E-10 -6.1452E-08
          84   4         1.2500E-03  9.8624E-08 -2.3513E-09 -2.6990E-09 -1.7831E-09 -5.0862E-08
          84   5         1.2500E-03  9.0091E-08  8.8698E-10 -9.6832E-09  6.4614E-09 -6.1711E-08
          84   6         1.2500E-03  9.3093E-08  3.1551E-09 -9.9388E-09  3.3143E-09 -5.0861E-08
          84   7         1.2500E-03  9.4879E-08 -5.1755E-09 -1.3021E-08  6.7547E-09 -6.2444E-08
          84   8         1.2500E-03  9.8563E-08 -2.2247E-09 -1.3017E-08  3.5062E-09 -5.1594E-08
          85   1         1.2500E-03  9.8733E-08  2.3987E-10  3.8322E-11 -2.4906E-09 -2.4113E-08
          85   2         1.2500E-03  9.9672E-08  9.8367E-10 -6.9221E-10 -2.8002E-09 -1.3235E-08
          85   3         1.2500E-03  1.0455E-07 -4.8237E-09 -3.3603E-10 -2.3427E-09 -2.4309E-08
          85   4         1.2500E-03  1.0569E-07 -3.8727E-09 -9.5908E-10 -2.6708E-09 -1.3430E-08
          85   5         1.2500E-03  9.8196E-08  5.8201E-10 -2.5834E-09  1.8215E-09 -2.4342E-08
          85   6         1.2500E-03  9.9141E-08  1.3135E-09 -3.3139E-09  8.9026E-10 -1.3356E-08
          85   7         1.2500E-03  1.0408E-07 -4.5174E-09 -3.5793E-09  1.9695E-09 -2.4556E-08
          85   8         1.2500E-03  1.0524E-07 -3.5787E-09 -4.2024E-09  1.0197E-09 -1.3570E-08
          86   1         1.2500E-03  1.1842E-07 -2.0054E-08  1.1657E-09 -2.4614E-09  1.3106E-08
          86   2         1.2500E-03  1.1740E-07 -2.1724E-08  6.3734E-10 -2.1041E-09  2.3553E-08
          86   3         1.2500E-03  1.2415E-07 -2.4773E-08  1.4632E-09 -2.0394E-09  1.2456E-08
          86   4         1.2500E-03  1.2290E-07 -2.6664E-08  1.0862E-09 -1.6608E-09  2.2904E-08
          86   5         1.2500E-03  1.1793E-07 -1.9596E-08  4.8787E-09  1.2497E-09  1.3276E-08
          86   6         1.2500E-03  1.1690E-07 -2.1253E-08  4.3503E-09  2.2686E-09  2.3875E-08
          86   7         1.2500E-03  1.2375E-07 -2.4366E-08  5.8378E-09  1.6717E-09  1.2648E-08
          86   8         1.2500E-03  1.2251E-07 -2.6243E-08  5.4607E-09  2.7119E-09  2.3247E-08
          87   1         1.2500E-03  1.1184E-07 -1.9948E-08  3.5051E-09 -1.4990E-09  4.9547E-08
          87   2         1.2500E-03  1.0851E-07 -2.5154E-08  3.7157E-09 -2.0323E-10  5.9831E-08
          87   3         1.2500E-03  1.1689E-07 -2.5180E-08  4.6768E-09 -1.0383E-09  4.7670E-08
          87   4         1.2500E-03  1.1284E-07 -3.1113E-08  5.1925E-09  2.8356E-10  5.7954E-08
          87   5         1.2500E-03  1.1183E-07 -1.9711E-08  1.5371E-08  3.9138E-09  5.0418E-08
          87   6         1.2500E-03  1.0849E-07 -2.4899E-08  1.5581E-08  7.3895E-09  6.1008E-08
          87   7         1.2500E-03  1.1708E-07 -2.5045E-08  1.8722E-08  4.3744E-09  4.8568E-08
          87   8         1.2500E-03  1.1302E-07 -3.0960E-08  1.9238E-08  7.8763E-09  5.9157E-08
          88   1         1.2500E-03  9.5587E-08 -2.1146E-08  7.8431E-09  1.2579E-09  8.4565E-08
          88   2         1.2500E-03  8.9360E-08 -3.0310E-08  9.1583E-09  3.9541E-09  9.4002E-08
          88   3         1.2500E-03  9.8575E-08 -2.7595E-08  1.0347E-08  1.7844E-09  8.1628E-08
          88   4         1.2500E-03  9.0965E-08 -3.8142E-08  1.2192E-08  4.5627E-09  9.1065E-08
          88   5         1.2500E-03  9.6288E-08 -2.1234E-08  2.9459E-08  1.1168E-08  8.6726E-08
          88   6         1.2500E-03  9.0034E-08 -3.0342E-08  3.0774E-08  1.8014E-08  9.6693E-08
          88   7         1.2500E-03  9.9629E-08 -2.7859E-08  3.6113E-08  1.1694E-08  8.3871E-08
          88   8         1.2500E-03  9.1992E-08 -3.8351E-08  3.7958E-08  1.8623E-08  9.3839E-08
          89   1         1.2501E-03  6.6545E-08 -2.3405E-08  1.4529E-08  6.6612E-09  1.1475E-07
          89   2         1.2501E-03  5.6921E-08 -3.6697E-08  1.6963E-08  1.1361E-08  1.2185E-07
          89   3         1.2501E-03  6.5276E-08 -3.1767E-08  1.8939E-08  7.3437E-09  1.1108E-07
          89   4         1.2501E-03  5.3453E-08 -4.7259E-08  2.2157E-08  1.2163E-08  1.1818E-07
          89   5         1.2501E-03  6.7940E-08 -2.3761E-08  4.7069E-08  2.4656E-08  1.1903E-07
          89   6         1.2501E-03  5.8276E-08 -3.6974E-08  4.9503E-08  3.5954E-08  1.2691E-07
          89   7         1.2501E-03  6.7194E-08 -3.2385E-08  5.8078E-08  2.5338E-08  1.1548E-07
          89   8         1.2501E-03  5.5331E-08 -4.7797E-08  6.1296E-08  3.6756E-08  1.2336E-07
          90   1         1.2501E-03  2.3186E-08 -2.6810E-08  2.2247E-08  1.5525E-08  1.3418E-07
          90   2         1.2502E-03  1.0488E-08 -4.3480E-08  2.4723E-08  2.2202E-08  1.3685E-07
          90   3         1.2501E-03  1.4893E-08 -3.7782E-08  2.8752E-08  1.6435E-08  1.3020E-07
          90   4         1.2502E-03 -7.4555E-10 -5.7392E-08  3.1803E-08  2.3287E-08  1.3288E-07
          90   5         1.2501E-03  2.4534E-08 -2.7030E-08  6.4311E-08  4.5762E-08  1.4090E-07
          90   6         1.2502E-03  1.1778E-08 -4.3582E-08  6.6788E-08  6.1260E-08  1.4415E-07
          90   7         1.2501E-03  1.6624E-08 -3.8193E-08  7.9638E-08  4.6672E-08  1.3710E-07
          90   8         1.2502E-03  9.2689E-10 -5.7686E-08  8.2690E-08  6.2345E-08  1.4036E-07
          91   1         1.2502E-03 -3.1408E-08 -3.1408E-08  2.7515E-08  2.7515E-08  1.3564E-07
          91   2         1.2502E-03 -4.5481E-08 -4.9204E-08  2.8791E-08  3.5355E-08  1.3191E-07
          91   3         1.2502E-03 -4.9204E-08 -4.5481E-08  3.5355E-08  2.8791E-08  1.3191E-07
[...]
        4888   6         1.2500E-03 -7.4601E-08  1.4190E-07 -2.7918E-10  8.6602E-09  3.6035E-09
        4888   7         1.2500E-03 -6.3242E-08  1.4605E-07  3.3866E-10  8.0192E-09 -3.6035E-09
        4888   8         1.2500E-03 -6.3242E-08  1.4605E-07 -3.3866E-10  8.0192E-09  3.6035E-09
        4889   1         1.2500E-03 -6.9760E-08  1.3911E-07  4.2303E-09  2.7772E-08  2.3256E-08
        4889   2         1.2500E-03 -6.7034E-08  1.3725E-07  3.6961E-09  2.6266E-08  2.9847E-08
        4889   3         1.2500E-03 -5.8931E-08  1.4334E-07  2.7368E-09  2.7094E-08  1.8672E-08
        4889   4         1.2500E-03 -5.6531E-08  1.4116E-07  2.0582E-09  2.5487E-08  2.5263E-08
        4889   5         1.2500E-03 -6.9890E-08  1.3883E-07  6.3638E-10  8.4673E-09  2.2931E-08
        4889   6         1.2500E-03 -6.7130E-08  1.3691E-07  1.0224E-10  7.9404E-09  2.9378E-08
        4889   7         1.2500E-03 -5.9157E-08  1.4312E-07  1.2209E-10  7.7892E-09  1.8246E-08
        4889   8         1.2500E-03 -5.6724E-08  1.4087E-07 -5.5645E-10  7.1608E-09  2.4693E-08
        4890   1         1.2500E-03 -5.4088E-08  1.2874E-07  7.0547E-09  2.4629E-08  4.5598E-08
        4890   2         1.2500E-03 -4.9175E-08  1.2525E-07  6.5300E-09  2.1663E-08  5.0157E-08
        4890   3         1.2500E-03 -4.5280E-08  1.3299E-07  4.1996E-09  2.3852E-08  3.7196E-08
        4890   4         1.2500E-03 -4.0968E-08  1.2890E-07  3.5708E-09  2.0995E-08  4.1755E-08
        4890   5         1.2500E-03 -5.4179E-08  1.2840E-07  7.1846E-10  7.3218E-09  4.4704E-08
        4890   6         1.2500E-03 -4.9303E-08  1.2498E-07  1.9384E-10  6.1588E-09  4.9159E-08
        4890   7         1.2500E-03 -4.5440E-08  1.3269E-07 -3.3297E-10  6.5451E-09  3.6411E-08
        4890   8         1.2500E-03 -4.1165E-08  1.2867E-07 -9.6175E-10  5.4914E-09  4.0866E-08
        4891   1         1.2500E-03 -3.0960E-08  1.1302E-07  7.8763E-09  1.9238E-08  5.9157E-08
        4891   2         1.2500E-03 -2.4899E-08  1.0849E-07  7.3895E-09  1.5581E-08  6.1008E-08
        4891   3         1.2500E-03 -2.5045E-08  1.1708E-07  4.3744E-09  1.8722E-08  4.8568E-08
        4891   4         1.2500E-03 -1.9711E-08  1.1183E-07  3.9138E-09  1.5371E-08  5.0418E-08
        4891   5         1.2500E-03 -3.1113E-08  1.1284E-07  2.8356E-10  5.1925E-09  5.7954E-08
        4891   6         1.2500E-03 -2.5154E-08  1.0851E-07 -2.0323E-10  3.7157E-09  5.9831E-08
        4891   7         1.2500E-03 -2.5180E-08  1.1689E-07 -1.0383E-09  4.6768E-09  4.7670E-08
        4891   8         1.2500E-03 -1.9948E-08  1.1184E-07 -1.4990E-09  3.5051E-09  4.9547E-08
        4892   1         1.2500E-03 -5.1755E-09  9.4879E-08  6.7547E-09  1.3021E-08  6.2444E-08
        4892   2         1.2500E-03  8.8698E-10  9.0091E-08  6.4614E-09  9.6832E-09  6.1711E-08
        4892   3         1.2500E-03 -2.2247E-09  9.8563E-08  3.5062E-09  1.3017E-08  5.1594E-08
        4892   4         1.2500E-03  3.1551E-09  9.3093E-08  3.3143E-09  9.9388E-09  5.0861E-08
        4892   5         1.2500E-03 -5.3697E-09  9.4974E-08 -5.8235E-10  2.7029E-09  6.1452E-08
        4892   6         1.2500E-03  6.0629E-10  9.0360E-08 -8.7560E-10  1.4128E-09  6.0821E-08
        4892   7         1.2500E-03 -2.3513E-09  9.8624E-08 -1.7831E-09  2.6990E-09  5.0862E-08
        4892   8         1.2500E-03  2.9421E-09  9.3327E-08 -1.9749E-09  1.6683E-09  5.0230E-08
        4893   1         1.2500E-03  1.8883E-08  7.7294E-08  4.6245E-09  7.5344E-09  5.6767E-08
        4893   2         1.2500E-03  2.4097E-08  7.2926E-08  4.6718E-09  5.0017E-09  5.4076E-08
        4893   3         1.2500E-03  1.9398E-08  8.0499E-08  2.1216E-09  7.9380E-09  4.7185E-08
        4893   4         1.2500E-03  2.4069E-08  7.5588E-08  2.2617E-09  5.5503E-09  4.4495E-08
        4893   5         1.2500E-03  1.8780E-08  7.7547E-08 -1.4337E-09  6.0951E-10  5.6180E-08
        4893   6         1.2500E-03  2.3945E-08  7.3276E-08 -1.3864E-09 -2.9488E-10  5.3582E-08
        4893   7         1.2500E-03  1.9357E-08  8.0721E-08 -2.3083E-09  1.0131E-09  4.6743E-08
        4893   8         1.2500E-03  2.3979E-08  7.5907E-08 -2.1682E-09  2.5374E-10  4.4146E-08
        4894   1         1.2500E-03  3.8326E-08  6.2470E-08  2.4692E-09  3.4633E-09  4.4736E-08
        4894   2         1.2500E-03  4.2210E-08  5.9022E-08  2.8882E-09  1.7930E-09  4.0816E-08
        4894   3         1.2500E-03  3.7142E-08  6.5206E-08  8.0438E-10  4.0914E-09  3.7405E-08
        4894   4         1.2500E-03  4.0651E-08  6.1384E-08  1.2861E-09  2.4930E-09  3.3485E-08
        4894   5         1.2500E-03  3.8396E-08  6.2749E-08 -1.8517E-09 -8.2574E-10  4.4473E-08
        4894   6         1.2500E-03  4.2256E-08  5.9349E-08 -1.4327E-09 -1.3717E-09  4.0616E-08
        4894   7         1.2500E-03  3.7254E-08  6.5464E-08 -2.3921E-09 -1.9770E-10  3.7214E-08
        4894   8         1.2500E-03  4.0739E-08  6.1690E-08 -1.9104E-09 -6.7168E-10  3.3356E-08
        4895   1         1.2500E-03  5.1771E-08  5.1771E-08  8.5058E-10  8.5058E-10  2.8961E-08
        4895   2         1.2500E-03  5.4126E-08  4.9583E-08  1.5863E-09 -5.3872E-11  2.4418E-08
        4895   3         1.2500E-03  4.9583E-08  5.4126E-08 -5.3872E-11  1.5863E-09  2.4418E-08
        4895   4         1.2500E-03  5.1724E-08  5.1724E-08  7.0732E-10  7.0732E-10  1.9875E-08
        4895   5         1.2500E-03  5.2016E-08  5.2016E-08 -1.6693E-09 -1.6693E-09  2.8893E-08
        4895   6         1.2500E-03  5.4362E-08  4.9845E-08 -9.3360E-10 -1.9364E-09  2.4376E-08
        4895   7         1.2500E-03  4.9845E-08  5.4362E-08 -1.9364E-09 -9.3360E-10  2.4376E-08
        4895   8         1.2500E-03  5.1978E-08  5.1978E-08 -1.1752E-09 -1.1752E-09  1.9858E-08
        4896   1         1.2500E-03  5.8866E-08  4.5904E-08 -1.3112E-10 -4.8726E-10  1.1426E-08
        4896   2         1.2500E-03  5.9650E-08  4.5156E-08  7.8493E-10 -7.6685E-10  6.6482E-09
        4896   3         1.2500E-03  5.6206E-08  4.8022E-08 -4.0849E-10  2.8471E-10  9.8936E-09
        4896   4         1.2500E-03  5.6922E-08  4.7206E-08  5.0699E-10  9.0727E-12  5.1163E-09
        4896   5         1.2500E-03  5.9219E-08  4.6114E-08 -9.5119E-10 -2.0620E-09  1.1425E-08
        4896   6         1.2500E-03  6.0002E-08  4.5368E-08 -3.5134E-11 -2.1380E-09  6.6470E-09
        4896   7         1.2500E-03  5.6559E-08  4.8231E-08 -1.0249E-09 -1.2900E-09  9.8969E-09
        4896   8         1.2500E-03  5.7274E-08  4.7418E-08 -1.0945E-10 -1.3620E-09  5.1190E-09
        4897   1         1.2500E-03  5.3209E-08  5.1588E-08 -3.7258E-10 -6.2884E-10 -2.8069E-09
        4897   2         1.2500E-03  5.2496E-08  5.2496E-08  5.4185E-10 -5.4185E-10 -4.4274E-09
        4897   3         1.2500E-03  5.2279E-08  5.2279E-08 -2.8330E-10  2.8330E-10 -1.1863E-09
        4897   4         1.2500E-03  5.1588E-08  5.3209E-08  6.2884E-10  3.7258E-10 -2.8069E-09
        4897   5         1.2500E-03  5.3514E-08  5.1892E-08  1.4519E-10 -1.0806E-09 -2.8108E-09
        4897   6         1.2500E-03  5.2801E-08  5.2801E-08  1.0596E-09 -1.0596E-09 -4.4337E-09
        4897   7         1.2500E-03  5.2583E-08  5.2583E-08  1.6850E-10 -1.6850E-10 -1.1880E-09
        4897   8         1.2500E-03  5.1892E-08  5.3514E-08  1.0806E-09 -1.4519E-10 -2.8108E-09
        4898   1         1.2500E-03  4.8022E-08  5.6206E-08 -2.8471E-10 -4.0849E-10 -9.8936E-09
        4898   2         1.2500E-03  4.5904E-08  5.8866E-08  4.8726E-10 -1.3112E-10 -1.1426E-08
        4898   3         1.2500E-03  4.7206E-08  5.6922E-08 -9.0727E-12  5.0699E-10 -5.1163E-09
        4898   4         1.2500E-03  4.5156E-08  5.9650E-08  7.6685E-10  7.8493E-10 -6.6482E-09
        4898   5         1.2500E-03  4.8231E-08  5.6559E-08  1.2900E-09 -1.0249E-09 -9.8969E-09
        4898   6         1.2500E-03  4.6114E-08  5.9219E-08  2.0620E-09 -9.5119E-10 -1.1425E-08
        4898   7         1.2500E-03  4.7418E-08  5.7274E-08  1.3620E-09 -1.0945E-10 -5.1190E-09
        4898   8         1.2500E-03  4.5368E-08  6.0002E-08  2.1380E-09 -3.5134E-11 -6.6470E-09
        4899   1         1.2500E-03  3.7055E-08  6.6094E-08 -5.1850E-10  1.5868E-10 -1.6369E-08
        4899   2         1.2500E-03  3.3625E-08  7.0298E-08 -7.5591E-12  6.7307E-10 -1.7678E-08
        4899   3         1.2500E-03  3.6523E-08  6.6872E-08 -2.3429E-11  1.0673E-09 -8.7340E-09
        4899   4         1.2500E-03  3.3212E-08  7.1195E-08  5.0460E-10  1.5609E-09 -1.0043E-08
        4899   5         1.2500E-03  3.7092E-08  6.6529E-08  2.1362E-09 -8.6613E-10 -1.6331E-08
        4899   6         1.2500E-03  3.3670E-08  7.0720E-08  2.6472E-09 -7.0746E-10 -1.7623E-08
        4899   7         1.2500E-03  3.6572E-08  6.7301E-08  2.2756E-09  4.2518E-11 -8.7173E-09
        4899   8         1.2500E-03  3.3268E-08  7.1611E-08  2.8036E-09  1.8035E-10 -1.0010E-08
        4900   1         1.2500E-03  2.0812E-08  8.0545E-08 -1.1093E-09  1.1482E-09 -2.1514E-08
        4900   2         1.2500E-03  1.6311E-08  8.5900E-08 -9.2621E-10  1.9319E-09 -2.2397E-08
        4900   3         1.2500E-03  2.0790E-08  8.1405E-08 -3.7108E-10  2.0051E-09 -1.1659E-08
        4900   4         1.2500E-03  1.6459E-08  8.6930E-08 -1.6320E-10  2.7251E-09 -1.2541E-08
        4900   5         1.2500E-03  2.0649E-08  8.1056E-08  2.5379E-09 -5.4921E-10 -2.1386E-08
        4900   6         1.2500E-03  1.6169E-08  8.6368E-08  2.7211E-09 -2.7552E-10 -2.2243E-08
        4900   7         1.2500E-03  2.0643E-08  8.1907E-08  2.7662E-09  3.0766E-10 -1.1594E-08
        4900   8         1.2500E-03  1.6333E-08  8.7389E-08  2.9740E-09  5.1766E-10 -1.2452E-08
        4901   1         1.2500E-03  5.8201E-10  9.8196E-08 -1.8215E-09  2.5834E-09 -2.4342E-08
        4901   2         1.2500E-03 -4.5174E-09  1.0408E-07 -1.9695E-09  3.5793E-09 -2.4556E-08
        4901   3         1.2500E-03  1.3135E-09  9.9141E-08 -8.9026E-10  3.3139E-09 -1.3356E-08
        4901   4         1.2500E-03 -3.5787E-09  1.0524E-07 -1.0197E-09  4.2024E-09 -1.3570E-08
        4901   5         1.2500E-03  2.3987E-10  9.8733E-08  2.4906E-09 -3.8322E-11 -2.4113E-08
        4901   6         1.2500E-03 -4.8237E-09  1.0455E-07  2.3427E-09  3.3603E-10 -2.4309E-08
        4901   7         1.2500E-03  9.8367E-10  9.9672E-08  2.8002E-09  6.9221E-10 -1.3235E-08
        4901   8         1.2500E-03 -3.8727E-09  1.0569E-07  2.6708E-09  9.5908E-10 -1.3430E-08
        4902   1         1.2500E-03 -2.1253E-08  1.1690E-07 -2.2686E-09  4.3503E-09 -2.3875E-08
        4902   2         1.2500E-03 -2.6243E-08  1.2251E-07 -2.7119E-09  5.4607E-09 -2.3247E-08
        4902   3         1.2500E-03 -1.9596E-08  1.1793E-07 -1.2497E-09  4.8787E-09 -1.3276E-08
        4902   4         1.2500E-03 -2.4366E-08  1.2375E-07 -1.6717E-09  5.8378E-09 -1.2648E-08
        4902   5         1.2500E-03 -2.1724E-08  1.1740E-07  2.1041E-09  6.3734E-10 -2.3553E-08
        4902   6         1.2500E-03 -2.6664E-08  1.2290E-07  1.6608E-09  1.0862E-09 -2.2904E-08
        4902   7         1.2500E-03 -2.0054E-08  1.1842E-07  2.4614E-09  1.1657E-09 -1.3106E-08
        4902   8         1.2500E-03 -2.4773E-08  1.2415E-07  2.0394E-09  1.4632E-09 -1.2456E-08
        4903   1         1.2500E-03 -4.1339E-08  1.3388E-07 -2.1223E-09  6.2794E-09 -1.9579E-08
        4903   2         1.2500E-03 -4.5382E-08  1.3832E-07 -2.7824E-09  7.4055E-09 -1.8085E-08
        4903   3         1.2500E-03 -3.8729E-08  1.3499E-07 -1.1239E-09  6.5263E-09 -1.1097E-08
        4903   4         1.2500E-03 -4.2565E-08  1.3964E-07 -1.7655E-09  7.4483E-09 -9.6028E-09
        4903   5         1.2500E-03 -4.1862E-08  1.3426E-07  1.5231E-09  1.4356E-09 -1.9149E-08
        4903   6         1.2500E-03 -4.5836E-08  1.3857E-07  8.6299E-10  1.9415E-09 -1.7636E-08
        4903   7         1.2500E-03 -3.9239E-08  1.3537E-07  1.9012E-09  1.6826E-09 -1.0871E-08
        4903   8         1.2500E-03 -4.3007E-08  1.3988E-07  1.2596E-09  1.9843E-09 -9.3586E-09
        4904   1         1.2500E-03 -5.5988E-08  1.4622E-07 -1.1945E-09  8.1127E-09 -1.1644E-08
        4904   2         1.2500E-03 -5.8275E-08  1.4869E-07 -1.9441E-09  8.9187E-09 -9.4477E-09
        4904   3         1.2500E-03 -5.2576E-08  1.4743E-07 -4.7264E-10  8.0159E-09 -6.8883E-09
        4904   4         1.2500E-03 -5.4726E-08  1.5004E-07 -1.2720E-09  8.6445E-09 -4.6920E-09
        4904   5         1.2500E-03 -5.6455E-08  1.4640E-07  9.1072E-10  2.2706E-09 -1.1244E-08
        4904   6         1.2500E-03 -5.8683E-08  1.4875E-07  1.6110E-10  2.6639E-09 -9.0972E-09
        4904   7         1.2500E-03 -5.3077E-08  1.4764E-07  1.2199E-09  2.1738E-09 -6.6653E-09
        4904   8         1.2500E-03 -5.5167E-08  1.5012E-07  4.2052E-10  2.3898E-09 -4.5187E-09
        4905   1         1.2500E-03 -6.2108E-08  1.5153E-07  3.7949E-10  9.2137E-09 -1.2398E-09
        4905   2         1.2500E-03 -6.2108E-08  1.5153E-07 -3.7949E-10  9.2137E-09  1.2398E-09
        4905   3         1.2500E-03 -5.8320E-08  1.5284E-07  4.3153E-10  8.8746E-09 -1.2398E-09
        4905   4         1.2500E-03 -5.8320E-08  1.5284E-07 -4.3153E-10  8.8746E-09  1.2398E-09
        4905   5         1.2500E-03 -6.2501E-08  1.5155E-07  3.7949E-10  2.8078E-09 -1.1877E-09
        4905   6         1.2500E-03 -6.2501E-08  1.5155E-07 -3.7949E-10  2.8078E-09  1.1877E-09
        4905   7         1.2500E-03 -5.8782E-08  1.5290E-07  4.3153E-10  2.4688E-09 -1.1877E-09
        4905   8         1.2500E-03 -5.8782E-08  1.5290E-07 -4.3153E-10  2.4688E-09  1.1877E-09
        4906   1         1.2500E-03 -5.8275E-08  1.4869E-07  1.9441E-09  8.9187E-09  9.4477E-09
        4906   2         1.2500E-03 -5.5988E-08  1.4622E-07  1.1945E-09  8.1127E-09  1.1644E-08
        4906   3         1.2500E-03 -5.4726E-08  1.5004E-07  1.2720E-09  8.6445E-09  4.6920E-09
        4906   4         1.2500E-03 -5.2576E-08  1.4743E-07  4.7264E-10  8.0159E-09  6.8883E-09
        4906   5         1.2500E-03 -5.8683E-08  1.4875E-07 -1.6110E-10  2.6639E-09  9.0972E-09
        4906   6         1.2500E-03 -5.6455E-08  1.4640E-07 -9.1072E-10  2.2706E-09  1.1244E-08
        4906   7         1.2500E-03 -5.5167E-08  1.5012E-07 -4.2052E-10  2.3898E-09  4.5187E-09
        4906   8         1.2500E-03 -5.3077E-08  1.4764E-07 -1.2199E-09  2.1738E-09  6.6653E-09
        4907   1         1.2500E-03 -4.5382E-08  1.3832E-07  2.7824E-09  7.4055E-09  1.8085E-08
        4907   2         1.2500E-03 -4.1339E-08  1.3388E-07  2.1223E-09  6.2794E-09  1.9579E-08
        4907   3         1.2500E-03 -4.2565E-08  1.3964E-07  1.7655E-09  7.4483E-09  9.6028E-09
        4907   4         1.2500E-03 -3.8729E-08  1.3499E-07  1.1239E-09  6.5263E-09  1.1097E-08
        4907   5         1.2500E-03 -4.5836E-08  1.3857E-07 -8.6299E-10  1.9415E-09  1.7636E-08
        4907   6         1.2500E-03 -4.1862E-08  1.3426E-07 -1.5231E-09  1.4356E-09  1.9149E-08
        4907   7         1.2500E-03 -4.3007E-08  1.3988E-07 -1.2596E-09  1.9843E-09  9.3586E-09
        4907   8         1.2500E-03 -3.9239E-08  1.3537E-07 -1.9012E-09  1.6826E-09  1.0871E-08
        4908   1         1.2500E-03 -2.6243E-08  1.2251E-07  2.7119E-09  5.4607E-09  2.3247E-08
        4908   2         1.2500E-03 -2.1253E-08  1.1690E-07  2.2686E-09  4.3503E-09  2.3875E-08
        4908   3         1.2500E-03 -2.4366E-08  1.2375E-07  1.6717E-09  5.8378E-09  1.2648E-08
        4908   4         1.2500E-03 -1.9596E-08  1.1793E-07  1.2497E-09  4.8787E-09  1.3276E-08
        4908   5         1.2500E-03 -2.6664E-08  1.2290E-07 -1.6608E-09  1.0862E-09  2.2904E-08
        4908   6         1.2500E-03 -2.1724E-08  1.1740E-07 -2.1041E-09  6.3734E-10  2.3553E-08
        4908   7         1.2500E-03 -2.4773E-08  1.2415E-07 -2.0394E-09  1.4632E-09  1.2456E-08
        4908   8         1.2500E-03 -2.0054E-08  1.1842E-07 -2.4614E-09  1.1657E-09  1.3106E-08
        4909   1         1.2500E-03 -4.5174E-09  1.0408E-07  1.9695E-09  3.5793E-09  2.4556E-08
        4909   2         1.2500E-03  5.8201E-10  9.8196E-08  1.8215E-09  2.5834E-09  2.4342E-08
        4909   3         1.2500E-03 -3.5787E-09  1.0524E-07  1.0197E-09  4.2024E-09  1.3570E-08
        4909   4         1.2500E-03  1.3135E-09  9.9141E-08  8.9026E-10  3.3139E-09  1.3356E-08
        4909   5         1.2500E-03 -4.8237E-09  1.0455E-07 -2.3427E-09  3.3603E-10  2.4309E-08
        4909   6         1.2500E-03  2.3987E-10  9.8733E-08 -2.4906E-09 -3.8322E-11  2.4113E-08
        4909   7         1.2500E-03 -3.8727E-09  1.0569E-07 -2.6708E-09  9.5908E-10  1.3430E-08
        4909   8         1.2500E-03  9.8367E-10  9.9672E-08 -2.8002E-09  6.9221E-10  1.3235E-08
        4910   1         1.2500E-03  1.6311E-08  8.5900E-08  9.2621E-10  1.9319E-09  2.2397E-08
        4910   2         1.2500E-03  2.0812E-08  8.0545E-08  1.1093E-09  1.1482E-09  2.1514E-08
        4910   3         1.2500E-03  1.6459E-08  8.6930E-08  1.6320E-10  2.7251E-09  1.2541E-08
        4910   4         1.2500E-03  2.0790E-08  8.1405E-08  3.7108E-10  2.0051E-09  1.1659E-08
        4910   5         1.2500E-03  1.6169E-08  8.6368E-08 -2.7211E-09 -2.7552E-10  2.2243E-08
        4910   6         1.2500E-03  2.0649E-08  8.1056E-08 -2.5379E-09 -5.4921E-10  2.1386E-08
        4910   7         1.2500E-03  1.6333E-08  8.7389E-08 -2.9740E-09  5.1766E-10  1.2452E-08
        4910   8         1.2500E-03  2.0643E-08  8.1907E-08 -2.7662E-09  3.0766E-10  1.1594E-08
        4911   1         1.2500E-03  3.3625E-08  7.0298E-08  7.5591E-12  6.7307E-10  1.7678E-08
        4911   2         1.2500E-03  3.7055E-08  6.6094E-08  5.1850E-10  1.5868E-10  1.6369E-08
        4911   3         1.2500E-03  3.3212E-08  7.1195E-08 -5.0460E-10  1.5609E-09  1.0043E-08
        4911   4         1.2500E-03  3.6523E-08  6.6872E-08  2.3429E-11  1.0673E-09  8.7340E-09
        4911   5         1.2500E-03  3.3670E-08  7.0720E-08 -2.6472E-09 -7.0746E-10  1.7623E-08
        4911   6         1.2500E-03  3.7092E-08  6.6529E-08 -2.1362E-09 -8.6613E-10  1.6331E-08
        4911   7         1.2500E-03  3.3268E-08  7.1611E-08 -2.8036E-09  1.8035E-10  1.0010E-08
        4911   8         1.2500E-03  3.6572E-08  6.7301E-08 -2.2756E-09  4.2518E-11  8.7173E-09
        4912   1         1.2500E-03  4.5904E-08  5.8866E-08 -4.8726E-10 -1.3112E-10  1.1426E-08
        4912   2         1.2500E-03  4.8022E-08  5.6206E-08  2.8471E-10 -4.0849E-10  9.8936E-09
        4912   3         1.2500E-03  4.5156E-08  5.9650E-08 -7.6685E-10  7.8493E-10  6.6482E-09
        4912   4         1.2500E-03  4.7206E-08  5.6922E-08  9.0727E-12  5.0699E-10  5.1163E-09
        4912   5         1.2500E-03  4.6114E-08  5.9219E-08 -2.0620E-09 -9.5119E-10  1.1425E-08
        4912   6         1.2500E-03  4.8231E-08  5.6559E-08 -1.2900E-09 -1.0249E-09  9.8969E-09
        4912   7         1.2500E-03  4.5368E-08  6.0002E-08 -2.1380E-09 -3.5134E-11  6.6470E-09
        4912   8         1.2500E-03  4.7418E-08  5.7274E-08 -1.3620E-09 -1.0945E-10  5.1190E-09
        4913   1         1.2500E-03  5.2496E-08  5.2496E-08 -5.4185E-10 -5.4185E-10  4.4274E-09
        4913   2         1.2500E-03  5.3209E-08  5.1588E-08  3.7258E-10 -6.2884E-10  2.8069E-09
        4913   3         1.2500E-03  5.1588E-08  5.3209E-08 -6.2884E-10  3.7258E-10  2.8069E-09
        4913   4         1.2500E-03  5.2279E-08  5.2279E-08  2.8330E-10  2.8330E-10  1.1863E-09
        4913   5         1.2500E-03  5.2801E-08  5.2801E-08 -1.0596E-09 -1.0596E-09  4.4337E-09
        4913   6         1.2500E-03  5.3514E-08  5.1892E-08 -1.4519E-10 -1.0806E-09  2.8108E-09
        4913   7         1.2500E-03  5.1892E-08  5.3514E-08 -1.0806E-09 -1.4519E-10  2.8108E-09
        4913   8         1.2500E-03  5.2583E-08  5.2583E-08 -1.6851E-10 -1.6850E-10  1.1880E-09

  TOTAL                  49.13     -9.0010E-16 -1.0457E-15 -7.8933E-17  1.5936E-14 -3.3801E-19                                    


          THE ANALYSIS HAS BEEN COMPLETED



                              ANALYSIS COMPLETE



     JOB TIME SUMMARY
       USER TIME (SEC)      =   6.7000    
       SYSTEM TIME (SEC)    =  0.60000    
       TOTAL CPU TIME (SEC) =   7.3000    
       WALLCLOCK TIME (SEC) =          9
