1

   Abaqus 6.13-1                                  Date 28-Apr-2014   Time 08:48:49
   For use at  under license from Dassault Systemes or its subsidiary.



                         The Abaqus Software is a product of:

                           Dassault Systemes Simulia Corp.
                                 Rising Sun Mills
                                 166 Valley Street
                           Providence, RI 02909-2499, USA
 


                   Available for internal use at . 
                   The Abaqus Online Support System is accessible
                   through the "My Support" section of the SIMULIA
                   Home Page at http://www.simulia.com.

                   Support policies for academic licenses are described
                   on the SIMULIA web site at
                   http://www.3ds.com/products/simulia/academics/
 
                          On machine coe7vlab188g 
                          you are authorized to run
                          Abaqus/Standard until 29-Jun-2014

                          Your site id is: 100000000002077 


 
                    For assistance or any other information you may
                    obtain contact information for your local office
                    from the world wide web at:

                      http://www.3ds.com/products/simulia/locations/

 
                * * * * * * * * * * * * * * * * * * * * * * * * * * * * * * 
                *                                                         * 
                *                   *****************                     * 
                *                   *  N O T I C E  *                     * 
                *                   *****************                     * 
                *                                                         * 
                *                                                         * 
                *                    Abaqus 6.13-1                        * 
                *                                                         * 
                *          BUILD ID: 2013_05_15-22.28.56 126354           * 
                *                                                         * 
                *                                                         * 
                *  Please make sure you are using release 6.13 manuals    * 
                *  plus the notes accompanying this release.              * 
                *                                                         * 
                *                                                         * 
                *                                                         * 
                *                                                         * 
                *                                                         * 
                *   This program may not be used for commercial purposes  * 
                *           without payment of a commercial fee.          * 
                *                                                         * 
                * * * * * * * * * * * * * * * * * * * * * * * * * * * * * * 


 



     PROCESSING PART, INSTANCE, AND ASSEMBLY INFORMATION
   *******************************************************


     END PROCESSING PART, INSTANCE, AND ASSEMBLY INFORMATION
   ***********************************************************




     OPTIONS BEING PROCESSED
   ***************************


  *Heading
  *node
  *NSET, NSET=A
  *NSET, NSET=B
  *NSET, NSET=C
  *NSET, NSET=D
  *NSET, NSET=E
  *NSET, NSET=F
  *NSET, NSET=G
  *NSET, NSET=H
  *Nfill, Nset=AB
  *Nfill, Nset=CD
  *Nfill, Nset=ABCD
  *Nfill, Nset=EF
  *Nfill, Nset=GH
  *Nfill, Nset=EFGH
  *Nfill, Nset=ABCDEFGH
  *Nfill, Nset=BD
  *Nfill, Nset=FH
  *Nfill, Nset=BDFH
  *Nfill, Nset=AC
  *Nfill, Nset=EG
  *Nfill, Nset=ACEG
  *ELEMENT, TYPE=C3D8
  *ELGEN, elset=allel
  *ELSET, ELSET=elset1
  *ELSET, ELSET=elset2
  *NSET, NSET=n1plus
  *NSET, NSET=n1minus
  *NSET, NSET=n2minus
  *NSET, NSET=n2plus
  *NSET, NSET=n2minus
  *NSET, NSET=n3minus
  *NSET, NSET=n3plus
  *NSET, NSET=n3minus_n1minus
  *NSET, NSET=n3minus_n1plus
  *NSET, NSET=n2minus_n3minus
  *NSET, NSET=n2plus_n3minus
  *NSET, NSET=n3plus_n1minus
  *NSET, NSET=n3plus_n1plus
  *NSET, NSET=n2minus_n3plus
  *NSET, NSET=n2plus_n3plus
  *NSET, NSET=n1plus_n2minus
  *NSET, NSET=n1plus_n2plus
  *NSET, NSET=n1minus_n2minus
  *NSET, NSET=n1minus_n2plus
  *Material, name=material-1
  *Elastic,type=isotropic
  *Material, name=material-2
  *Elastic,type=isotropic
  *Solid Section, elset=elset1, material=material-1
  *Solid Section, elset=elset2, material=material-2
  *Boundary
  *Equation
  *Solid Section, elset=elset1, material=material-1
  *Solid Section, elset=elset2, material=material-2
  *output, field, frequency=0
  *output, history, frequency=0
  *output, field, frequency=0
  *output, history, frequency=0
  *output, field, frequency=0
  *output, history, frequency=0
  *Step, name=Step-1
  *output, field, frequency=0
  *output, history, frequency=0
  *Step, name=Step-1
  *Step, name=Step-1
  *Static
  *Boundary
  *output, field, frequency=0
  *output, history, frequency=0
  *el print, summary=no, totals=yes
  *End Step
  *Step, name=Step-1
  *Static
  *Boundary
  *End Step



                            P R O B L E M   S I Z E


          NUMBER OF ELEMENTS IS                                  4913
          NUMBER OF NODES IS                                     5832
          NUMBER OF NODES DEFINED BY THE USER                    5832
          TOTAL NUMBER OF VARIABLES IN THE MODEL                17496
          (DEGREES OF FREEDOM PLUS MAX NO. OF ANY LAGRANGE MULTIPLIER
           VARIABLES. INCLUDE *PRINT,SOLVE=YES TO GET THE ACTUAL NUMBER.)



                              END OF USER INPUT PROCESSING



     JOB TIME SUMMARY
       USER TIME (SEC)      =  0.40000    
       SYSTEM TIME (SEC)    =  0.20000    
       TOTAL CPU TIME (SEC) =  0.60000    
       WALLCLOCK TIME (SEC) =          3
1

   Abaqus 6.13-1                                  Date 28-Apr-2014   Time 08:49:05
   For use at  under license from Dassault Systemes or its subsidiary.

                                                                                               STEP    1  INCREMENT    1
                                                                                          TIME COMPLETED IN THIS STEP   0.00    


                        S T E P       1     S T A T I C   A N A L Y S I S


                                                                                          

     AUTOMATIC TIME CONTROL WITH -
          A SUGGESTED INITIAL TIME INCREMENT OF                 1.00    
          AND A TOTAL TIME PERIOD OF                            1.00    
          THE MINIMUM TIME INCREMENT ALLOWED IS                1.000E-05
          THE MAXIMUM TIME INCREMENT ALLOWED IS                 1.00    

     LINEAR EQUATION SOLVER TYPE         DIRECT SPARSE
  
                   M E M O R Y   E S T I M A T E
  
 PROCESS      FLOATING PT       MINIMUM MEMORY        MEMORY TO
              OPERATIONS           REQUIRED          MINIMIZE I/O
             PER ITERATION         (MBYTES)           (MBYTES)
  
     1         1.85E+010               39                183
  
 NOTE:
      (1) SINCE ABAQUS DOES NOT PRE-ALLOCATE MEMORY AND ONLY ALLOCATES MEMORY AS NEEDED DURING THE ANALYSIS,
          THE MEMORY REQUIREMENT PRINTED HERE CAN ONLY BE VIEWED AS A GENERAL GUIDELINE BASED ON THE BEST
          KNOWLEDGE AVAILABLE AT THE BEGINNING OF A STEP BEFORE THE SOLUTION PROCESS HAS BEGUN.
      (2) THE ESTIMATE IS NORMALLY UPDATED AT THE BEGINNING OF EVERY STEP. IT IS THE MAXIMUM VALUE OF THE
          ESTIMATE FROM THE CURRENT STEP TO THE LAST STEP OF THE ANALYSIS, WITH UNSYMMETRIC SOLUTION TAKEN
          INTO ACCOUNT IF APPLICABLE. 
      (3) SINCE THE ESTIMATE IS BASED ON THE ACTIVE DEGREES OF FREEDOM IN THE FIRST ITERATION OF THE 
          CURRENT STEP, THE MEMORY ESTIMATE MIGHT BE SIGNIFICANTLY DIFFERENT THAN ACTUAL USAGE FOR 
          PROBLEMS WITH SUBSTANTIAL CHANGES IN ACTIVE DEGREES OF FREEDOM BETWEEN STEPS (OR EVEN WITHIN
          THE SAME STEP). EXAMPLES ARE: PROBLEMS WITH SIGNIFICANT CONTACT CHANGES, PROBLEMS WITH MODEL
          CHANGE, PROBLEMS WITH BOTH STATIC STEP AND STEADY STATE DYNAMIC PROCEDURES WHERE ACOUSTIC 
          ELEMENTS WILL ONLY BE ACTIVATED IN THE STEADY STATE DYNAMIC STEPS.
      (4) FOR MULTI-PROCESS EXECUTION, THE ESTIMATED VALUE OF FLOATING POINT OPERATIONS FOR EACH PROCESS
          IS BASED ON AN INITIAL SCHEDULING OF OPERATIONS AND MIGHT NOT REFLECT THE ACTUAL FLOATING 
          POINT OPERATIONS COMPLETED ON EACH PROCESS. OPERATIONS ARE DYNAMICALLY BALANCED DURING EXECUTION, 
          SO THE ACTUAL BALANCE OF OPERATIONS BETWEEN PROCESSES IS EXPECTED TO BE BETTER THAN THE ESTIMATE
          PRINTED HERE.
      (5) THE UPPER LIMIT OF MEMORY THAT CAN BE ALLOCATED BY ABAQUS WILL IN GENERAL DEPEND ON THE VALUE OF
          THE "MEMORY" PARAMETER AND THE AMOUNT OF PHYSICAL MEMORY AVAILABLE ON THE MACHINE. PLEASE SEE
          THE "ABAQUS ANALYSIS USER'S MANUAL" FOR MORE DETAILS. THE ACTUAL USAGE OF MEMORY AND OF DISK
          SPACE FOR SCRATCH DATA WILL DEPEND ON THIS UPPER LIMIT AS WELL AS THE MEMORY REQUIRED TO MINIMIZE
          I/O. IF THE MEMORY UPPER LIMIT IS GREATER THAN THE MEMORY REQUIRED TO MINIMIZE I/O, THEN THE ACTUAL
          MEMORY USAGE WILL BE CLOSE TO THE ESTIMATED "MEMORY TO MINIMIZE I/O" VALUE, AND THE SCRATCH DISK
          USAGE WILL BE CLOSE-TO-ZERO; OTHERWISE, THE ACTUAL MEMORY USED WILL BE CLOSE TO THE PREVIOUSLY
          MENTIONED MEMORY LIMIT, AND THE SCRATCH DISK USAGE WILL BE ROUGHLY PROPORTIONAL TO THE DIFFERENCE
          BETWEEN THE ESTIMATED "MEMORY TO MINIMIZE I/O" AND THE MEMORY UPPER LIMIT. HOWEVER ACCURATE
          ESTIMATE OF THE SCRATCH DISK SPACE IS NOT POSSIBLE.
      (6) USING "*RESTART, WRITE" CAN GENERATE A LARGE AMOUNT OF DATA WRITTEN IN THE WORK DIRECTORY.


                                INCREMENT     1 SUMMARY


 TIME INCREMENT COMPLETED   1.00    ,  FRACTION OF STEP COMPLETED   1.00    
 STEP TIME COMPLETED        1.00    ,  TOTAL TIME COMPLETED         1.00    



                                                  E L E M E N T   O U T P U T





   THE FOLLOWING TABLE IS PRINTED FOR ALL ELEMENTS WITH TYPE C3D8 AT THE INTEGRATION POINTS

    ELEMENT  PT FOOT-       E11         E22         E33         E12         E13         E23         
                NOTE 

           1   1         1.2500E-03 -4.5289E-08 -4.5289E-08  8.9967E-11  8.9967E-11 -9.9136E-10
           1   2         1.2500E-03 -4.4697E-08 -4.6052E-08  7.5650E-10  6.9049E-11 -2.3456E-09
           1   3         1.2500E-03 -4.6052E-08 -4.4697E-08  6.9049E-11  7.5650E-10 -2.3456E-09
           1   4         1.2500E-03 -4.5441E-08 -4.5441E-08  7.3421E-10  7.3421E-10 -3.6998E-09
           1   5         1.2500E-03 -4.5067E-08 -4.5067E-08 -3.3075E-10 -3.3075E-10 -9.9236E-10
           1   6         1.2500E-03 -4.4475E-08 -4.5830E-08  3.3578E-10 -4.0746E-10 -2.3480E-09
           1   7         1.2500E-03 -4.5830E-08 -4.4475E-08 -4.0746E-10  3.3578E-10 -2.3480E-09
           1   8         1.2500E-03 -4.5220E-08 -4.5220E-08  2.5770E-10  2.5770E-10 -3.7036E-09
           2   1         1.2500E-03 -4.0797E-08 -4.9216E-08  8.9616E-10  3.7186E-11 -4.2702E-09
           2   2         1.2500E-03 -3.9045E-08 -5.1449E-08  1.4597E-09 -2.8944E-11 -5.5432E-09
           2   3         1.2500E-03 -4.1459E-08 -4.8605E-08  8.2867E-10  6.9857E-10 -8.2552E-09
           2   4         1.2500E-03 -3.9650E-08 -5.0781E-08  1.3860E-09  6.2349E-10 -9.5282E-09
           2   5         1.2500E-03 -4.0642E-08 -4.8963E-08 -3.7309E-10 -5.2260E-10 -4.2781E-09
           2   6         1.2500E-03 -3.8887E-08 -5.1202E-08  1.9044E-10 -7.6046E-10 -5.5573E-09
           2   7         1.2500E-03 -4.1308E-08 -4.8350E-08 -6.1230E-10  1.3878E-10 -8.2720E-09
           2   8         1.2500E-03 -3.9496E-08 -5.0532E-08 -5.4927E-11 -1.0802E-10 -9.5512E-09
           3   1         1.2500E-03 -3.1397E-08 -5.7587E-08  1.4974E-09 -9.7527E-11 -7.2655E-09
           3   2         1.2500E-03 -2.8580E-08 -6.1114E-08  1.8752E-09 -2.1877E-10 -8.3388E-09
           3   3         1.2500E-03 -3.1811E-08 -5.6928E-08  1.3688E-09  5.3987E-10 -1.3609E-08
           3   4         1.2500E-03 -2.8894E-08 -6.0355E-08  1.7299E-09  3.8649E-10 -1.4683E-08
           3   5         1.2500E-03 -3.1357E-08 -5.7288E-08 -6.1004E-10 -1.0014E-09 -7.2964E-09
           3   6         1.2500E-03 -2.8530E-08 -6.0836E-08 -2.3223E-10 -1.4217E-09 -8.3864E-09
           3   7         1.2500E-03 -3.1783E-08 -5.6623E-08 -1.0378E-09 -3.6397E-10 -1.3673E-08
           3   8         1.2500E-03 -2.8855E-08 -6.0072E-08 -6.7665E-10 -8.1644E-10 -1.4763E-08
           4   1         1.2500E-03 -1.7642E-08 -6.9758E-08  1.7952E-09 -3.2999E-10 -9.6518E-09
           4   2         1.2500E-03 -1.3978E-08 -7.4243E-08  1.9359E-09 -5.1262E-10 -1.0361E-08
           4   3         1.2500E-03 -1.7625E-08 -6.9033E-08  1.5888E-09  2.3731E-10 -1.7801E-08
           4   4         1.2500E-03 -1.3818E-08 -7.3375E-08  1.7077E-09 -1.6883E-11 -1.8510E-08
           4   5         1.2500E-03 -1.7737E-08 -6.9427E-08 -1.0494E-09 -1.7988E-09 -9.7279E-09
           4   6         1.2500E-03 -1.4049E-08 -7.3959E-08 -9.0869E-10 -2.4088E-09 -1.0459E-08
           4   7         1.2500E-03 -1.7735E-08 -6.8694E-08 -1.6831E-09 -1.2315E-09 -1.7949E-08
           4   8         1.2500E-03 -1.3904E-08 -7.3084E-08 -1.5643E-09 -1.9131E-09 -1.8679E-08
           5   1         1.2500E-03 -7.3387E-10 -8.4538E-08  1.7777E-09 -6.6349E-10 -1.1005E-08
           5   2         1.2500E-03  3.3847E-09 -8.9462E-08  1.6733E-09 -8.9305E-10 -1.1161E-08
           5   3         1.2500E-03 -9.0951E-11 -8.3738E-08  1.5027E-09 -2.3372E-10 -2.0047E-08
           5   4         1.2500E-03  4.2005E-09 -8.8490E-08  1.3834E-09 -5.7195E-10 -2.0204E-08
           5   5         1.2500E-03 -9.4677E-10 -8.4217E-08 -1.5352E-09 -2.9059E-09 -1.1130E-08
           5   6         1.2500E-03  3.2080E-09 -8.9213E-08 -1.6396E-09 -3.6540E-09 -1.1301E-08
           5   7         1.2500E-03 -3.1377E-10 -8.3412E-08 -2.3287E-09 -2.4762E-09 -2.0281E-08
           5   8         1.2500E-03  4.0139E-09 -8.8236E-08 -2.4480E-09 -3.3329E-09 -2.0453E-08
           6   1         1.2500E-03  1.7294E-08 -1.0011E-07  1.5247E-09 -1.0703E-09 -1.0885E-08
           6   2         1.2500E-03  2.1287E-08 -1.0479E-07  1.2148E-09 -1.3251E-09 -1.0340E-08
           6   3         1.2500E-03  1.8708E-08 -9.9242E-08  1.2109E-09 -8.4195E-10 -1.9559E-08
           6   4         1.2500E-03  2.2885E-08 -1.0374E-07  8.8359E-10 -1.2414E-09 -1.9015E-08
           6   5         1.2500E-03  1.7012E-08 -9.9856E-08 -1.7798E-09 -4.2229E-09 -1.1050E-08
           6   6         1.2500E-03  2.1053E-08 -1.0463E-07 -2.0897E-09 -5.0291E-09 -1.0523E-08
           6   7         1.2500E-03  1.8414E-08 -9.8981E-08 -2.6450E-09 -3.9945E-09 -1.9868E-08
           6   8         1.2500E-03  2.2639E-08 -1.0357E-07 -2.9723E-09 -4.9454E-09 -1.9342E-08
           7   1         1.2500E-03  3.3685E-08 -1.1418E-07  1.1631E-09 -1.5137E-09 -9.0183E-09
           7   2         1.2500E-03  3.6865E-08 -1.1786E-07  7.0445E-10 -1.7741E-09 -7.7598E-09
           7   3         1.2500E-03  3.5889E-08 -1.1323E-07  8.3057E-10 -1.5524E-09 -1.5883E-08
           7   4         1.2500E-03  3.9244E-08 -1.1674E-07  3.5622E-10 -2.0028E-09 -1.4624E-08
           7   5         1.2500E-03  3.3392E-08 -1.1405E-07 -1.5144E-09 -5.6104E-09 -9.2293E-09
           7   6         1.2500E-03  3.6636E-08 -1.1786E-07 -1.9730E-09 -6.3925E-09 -7.9866E-09
           7   7         1.2500E-03  3.5586E-08 -1.1310E-07 -2.3685E-09 -5.6492E-09 -1.6284E-08
           7   8         1.2500E-03  3.9004E-08 -1.1673E-07 -2.8429E-09 -6.6212E-09 -1.5041E-08
           8   1         1.2500E-03  4.5477E-08 -1.2434E-07  7.6237E-10 -1.9384E-09 -5.5233E-09
           8   2         1.2500E-03  4.7239E-08 -1.2637E-07  1.9398E-10 -2.1269E-09 -3.7433E-09
           8   3         1.2500E-03  4.8310E-08 -1.2328E-07  4.8770E-10 -2.2965E-09 -9.3160E-09
           8   4         1.2500E-03  5.0189E-08 -1.2520E-07 -3.4419E-11 -2.6485E-09 -7.5360E-09
           8   5         1.2500E-03  4.5218E-08 -1.2438E-07 -7.2984E-10 -6.8763E-09 -5.7292E-09
           8   6         1.2500E-03  4.7034E-08 -1.2652E-07 -1.2982E-09 -7.4159E-09 -3.9030E-09
           8   7         1.2500E-03  4.8081E-08 -1.2335E-07 -1.3557E-09 -7.2343E-09 -9.6855E-09
           8   8         1.2500E-03  5.0014E-08 -1.2537E-07 -1.8778E-09 -7.9375E-09 -7.8593E-09
           9   1         1.2500E-03  5.0327E-08 -1.2868E-07  3.0722E-10 -2.1958E-09 -9.8356E-10
           9   2         1.2500E-03  5.0327E-08 -1.2868E-07 -3.0722E-10 -2.1958E-09  9.8356E-10
           9   3         1.2500E-03  5.3444E-08 -1.2753E-07  2.5935E-10 -2.7773E-09 -9.8356E-10
           9   4         1.2500E-03  5.3444E-08 -1.2753E-07 -2.5935E-10 -2.7773E-09  9.8356E-10
           9   5         1.2500E-03  5.0111E-08 -1.2886E-07  3.0722E-10 -7.6134E-09 -1.0314E-09
           9   6         1.2500E-03  5.0111E-08 -1.2886E-07 -3.0722E-10 -7.6134E-09  1.0314E-09
           9   7         1.2500E-03  5.3292E-08 -1.2775E-07  2.5935E-10 -8.1949E-09 -1.0314E-09
           9   8         1.2500E-03  5.3292E-08 -1.2775E-07 -2.5935E-10 -8.1949E-09  1.0314E-09
          10   1         1.2500E-03  4.7239E-08 -1.2637E-07 -1.9398E-10 -2.1269E-09  3.7433E-09
          10   2         1.2500E-03  4.5477E-08 -1.2434E-07 -7.6237E-10 -1.9384E-09  5.5233E-09
          10   3         1.2500E-03  5.0189E-08 -1.2520E-07  3.4419E-11 -2.6485E-09  7.5360E-09
          10   4         1.2500E-03  4.8310E-08 -1.2328E-07 -4.8770E-10 -2.2965E-09  9.3160E-09
          10   5         1.2500E-03  4.7034E-08 -1.2652E-07  1.2982E-09 -7.4159E-09  3.9030E-09
          10   6         1.2500E-03  4.5218E-08 -1.2438E-07  7.2984E-10 -6.8763E-09  5.7292E-09
          10   7         1.2500E-03  5.0014E-08 -1.2537E-07  1.8778E-09 -7.9375E-09  7.8593E-09
          10   8         1.2500E-03  4.8081E-08 -1.2335E-07  1.3557E-09 -7.2343E-09  9.6855E-09
          11   1         1.2500E-03  3.6865E-08 -1.1786E-07 -7.0445E-10 -1.7741E-09  7.7598E-09
          11   2         1.2500E-03  3.3685E-08 -1.1418E-07 -1.1631E-09 -1.5137E-09  9.0183E-09
          11   3         1.2500E-03  3.9244E-08 -1.1674E-07 -3.5622E-10 -2.0028E-09  1.4624E-08
          11   4         1.2500E-03  3.5889E-08 -1.1323E-07 -8.3057E-10 -1.5524E-09  1.5883E-08
          11   5         1.2500E-03  3.6636E-08 -1.1786E-07  1.9730E-09 -6.3925E-09  7.9866E-09
          11   6         1.2500E-03  3.3392E-08 -1.1405E-07  1.5144E-09 -5.6104E-09  9.2293E-09
          11   7         1.2500E-03  3.9004E-08 -1.1673E-07  2.8429E-09 -6.6212E-09  1.5041E-08
          11   8         1.2500E-03  3.5586E-08 -1.1310E-07  2.3685E-09 -5.6492E-09  1.6284E-08
          12   1         1.2500E-03  2.1287E-08 -1.0479E-07 -1.2148E-09 -1.3251E-09  1.0340E-08
          12   2         1.2500E-03  1.7294E-08 -1.0011E-07 -1.5247E-09 -1.0703E-09  1.0885E-08
          12   3         1.2500E-03  2.2885E-08 -1.0374E-07 -8.8359E-10 -1.2414E-09  1.9015E-08
          12   4         1.2500E-03  1.8708E-08 -9.9242E-08 -1.2109E-09 -8.4195E-10  1.9559E-08
          12   5         1.2500E-03  2.1053E-08 -1.0463E-07  2.0897E-09 -5.0291E-09  1.0523E-08
          12   6         1.2500E-03  1.7012E-08 -9.9856E-08  1.7798E-09 -4.2229E-09  1.1050E-08
          12   7         1.2500E-03  2.2639E-08 -1.0357E-07  2.9723E-09 -4.9454E-09  1.9342E-08
          12   8         1.2500E-03  1.8414E-08 -9.8981E-08  2.6450E-09 -3.9945E-09  1.9868E-08
          13   1         1.2500E-03  3.3847E-09 -8.9462E-08 -1.6733E-09 -8.9305E-10  1.1161E-08
          13   2         1.2500E-03 -7.3387E-10 -8.4538E-08 -1.7777E-09 -6.6349E-10  1.1005E-08
          13   3         1.2500E-03  4.2005E-09 -8.8490E-08 -1.3834E-09 -5.7195E-10  2.0204E-08
          13   4         1.2500E-03 -9.0951E-11 -8.3738E-08 -1.5027E-09 -2.3372E-10  2.0047E-08
          13   5         1.2500E-03  3.2080E-09 -8.9213E-08  1.6396E-09 -3.6540E-09  1.1301E-08
          13   6         1.2500E-03 -9.4677E-10 -8.4217E-08  1.5352E-09 -2.9059E-09  1.1130E-08
          13   7         1.2500E-03  4.0139E-09 -8.8236E-08  2.4480E-09 -3.3329E-09  2.0453E-08
          13   8         1.2500E-03 -3.1377E-10 -8.3412E-08  2.3287E-09 -2.4762E-09  2.0281E-08
          14   1         1.2500E-03 -1.3978E-08 -7.4243E-08 -1.9359E-09 -5.1262E-10  1.0361E-08
          14   2         1.2500E-03 -1.7642E-08 -6.9758E-08 -1.7952E-09 -3.2999E-10  9.6518E-09
          14   3         1.2500E-03 -1.3818E-08 -7.3375E-08 -1.7077E-09 -1.6883E-11  1.8510E-08
          14   4         1.2500E-03 -1.7625E-08 -6.9033E-08 -1.5888E-09  2.3731E-10  1.7801E-08
          14   5         1.2500E-03 -1.4049E-08 -7.3959E-08  9.0869E-10 -2.4088E-09  1.0459E-08
          14   6         1.2500E-03 -1.7737E-08 -6.9427E-08  1.0494E-09 -1.7988E-09  9.7279E-09
          14   7         1.2500E-03 -1.3904E-08 -7.3084E-08  1.5643E-09 -1.9131E-09  1.8679E-08
          14   8         1.2500E-03 -1.7735E-08 -6.8694E-08  1.6831E-09 -1.2315E-09  1.7949E-08
          15   1         1.2500E-03 -2.8580E-08 -6.1114E-08 -1.8752E-09 -2.1877E-10  8.3388E-09
          15   2         1.2500E-03 -3.1397E-08 -5.7587E-08 -1.4974E-09 -9.7527E-11  7.2655E-09
          15   3         1.2500E-03 -2.8894E-08 -6.0355E-08 -1.7299E-09  3.8649E-10  1.4683E-08
          15   4         1.2500E-03 -3.1811E-08 -5.6928E-08 -1.3688E-09  5.3987E-10  1.3609E-08
          15   5         1.2500E-03 -2.8530E-08 -6.0836E-08  2.3223E-10 -1.4217E-09  8.3864E-09
          15   6         1.2500E-03 -3.1357E-08 -5.7288E-08  6.1004E-10 -1.0014E-09  7.2964E-09
          15   7         1.2500E-03 -2.8855E-08 -6.0072E-08  6.7665E-10 -8.1644E-10  1.4763E-08
          15   8         1.2500E-03 -3.1783E-08 -5.6623E-08  1.0378E-09 -3.6397E-10  1.3673E-08
          16   1         1.2500E-03 -3.9045E-08 -5.1449E-08 -1.4597E-09 -2.8944E-11  5.5432E-09
          16   2         1.2500E-03 -4.0797E-08 -4.9216E-08 -8.9616E-10  3.7186E-11  4.2702E-09
          16   3         1.2500E-03 -3.9650E-08 -5.0781E-08 -1.3860E-09  6.2349E-10  9.5282E-09
          16   4         1.2500E-03 -4.1459E-08 -4.8605E-08 -8.2867E-10  6.9857E-10  8.2552E-09
          16   5         1.2500E-03 -3.8887E-08 -5.1202E-08 -1.9044E-10 -7.6046E-10  5.5573E-09
          16   6         1.2500E-03 -4.0642E-08 -4.8963E-08  3.7309E-10 -5.2260E-10  4.2781E-09
          16   7         1.2500E-03 -3.9496E-08 -5.0532E-08  5.4927E-11 -1.0802E-10  9.5512E-09
          16   8         1.2500E-03 -4.1308E-08 -4.8350E-08  6.1230E-10  1.3878E-10  8.2720E-09
          17   1         1.2500E-03 -4.4697E-08 -4.6052E-08 -7.5650E-10  6.9049E-11  2.3456E-09
          17   2         1.2500E-03 -4.5289E-08 -4.5289E-08 -8.9968E-11  8.9967E-11  9.9136E-10
          17   3         1.2500E-03 -4.5441E-08 -4.5441E-08 -7.3421E-10  7.3421E-10  3.6998E-09
          17   4         1.2500E-03 -4.6052E-08 -4.4697E-08 -6.9049E-11  7.5650E-10  2.3456E-09
          17   5         1.2500E-03 -4.4475E-08 -4.5830E-08 -3.3578E-10 -4.0746E-10  2.3480E-09
          17   6         1.2500E-03 -4.5067E-08 -4.5067E-08  3.3075E-10 -3.3075E-10  9.9236E-10
          17   7         1.2500E-03 -4.5220E-08 -4.5220E-08 -2.5770E-10  2.5770E-10  3.7036E-09
          17   8         1.2500E-03 -4.5830E-08 -4.4475E-08  4.0746E-10  3.3578E-10  2.3480E-09
          18   1         1.2500E-03 -4.9216E-08 -4.0797E-08  3.7186E-11  8.9616E-10 -4.2702E-09
          18   2         1.2500E-03 -4.8605E-08 -4.1459E-08  6.9857E-10  8.2867E-10 -8.2552E-09
          18   3         1.2500E-03 -5.1449E-08 -3.9045E-08 -2.8944E-11  1.4597E-09 -5.5432E-09
          18   4         1.2500E-03 -5.0781E-08 -3.9650E-08  6.2349E-10  1.3860E-09 -9.5282E-09
          18   5         1.2500E-03 -4.8963E-08 -4.0642E-08 -5.2260E-10 -3.7309E-10 -4.2781E-09
          18   6         1.2500E-03 -4.8350E-08 -4.1308E-08  1.3878E-10 -6.1230E-10 -8.2720E-09
          18   7         1.2500E-03 -5.1202E-08 -3.8887E-08 -7.6046E-10  1.9044E-10 -5.5573E-09
          18   8         1.2500E-03 -5.0532E-08 -3.9496E-08 -1.0802E-10 -5.4927E-11 -9.5512E-09
          19   1         1.2500E-03 -4.4609E-08 -4.4609E-08  7.2242E-10  7.2242E-10 -1.6558E-08
          19   2         1.2500E-03 -4.2788E-08 -4.6549E-08  1.2666E-09  4.9962E-10 -2.0319E-08
          19   3         1.2500E-03 -4.6549E-08 -4.2788E-08  4.9962E-10  1.2666E-09 -2.0319E-08
          19   4         1.2500E-03 -4.4550E-08 -4.4550E-08  1.0139E-09  1.0139E-09 -2.4080E-08
          19   5         1.2500E-03 -4.4427E-08 -4.4427E-08 -9.7777E-10 -9.7777E-10 -1.6611E-08
          19   6         1.2500E-03 -4.2597E-08 -4.6388E-08 -4.3359E-10 -1.7370E-09 -2.0402E-08
          19   7         1.2500E-03 -4.6388E-08 -4.2597E-08 -1.7370E-09 -4.3359E-10 -2.0402E-08
          19   8         1.2500E-03 -4.4379E-08 -4.4379E-08 -1.2227E-09 -1.2227E-09 -2.4193E-08
          20   1         1.2500E-03 -3.4871E-08 -5.2702E-08  1.1629E-09  2.6159E-10 -2.7786E-08
          20   2         1.2500E-03 -3.1905E-08 -5.5773E-08  1.4964E-09 -1.6594E-10 -3.0988E-08
          20   3         1.2500E-03 -3.6079E-08 -5.0708E-08  7.2900E-10  7.3821E-10 -3.3823E-08
          20   4         1.2500E-03 -3.2799E-08 -5.3465E-08  1.0039E-09  2.3770E-10 -3.7025E-08
          20   5         1.2500E-03 -3.4808E-08 -5.2495E-08 -1.6983E-09 -2.5166E-09 -2.7957E-08
          20   6         1.2500E-03 -3.1817E-08 -5.5615E-08 -1.3648E-09 -3.8871E-09 -3.1217E-08
          20   7         1.2500E-03 -3.6055E-08 -5.0482E-08 -3.0752E-09 -2.0399E-09 -3.4068E-08
          20   8         1.2500E-03 -3.2750E-08 -5.3288E-08 -2.8003E-09 -3.4834E-09 -3.7327E-08
          21   1         1.2500E-03 -2.0416E-08 -6.4524E-08  1.2585E-09 -5.6826E-10 -3.6729E-08
          21   2         1.2500E-03 -1.6495E-08 -6.8440E-08  1.3398E-09 -1.2399E-09 -3.8873E-08
          21   3         1.2500E-03 -2.0324E-08 -6.2288E-08  5.6228E-10 -2.4115E-10 -4.4566E-08
          21   4         1.2500E-03 -1.5950E-08 -6.5751E-08  5.6300E-10 -1.0489E-09 -4.6710E-08
          21   5         1.2500E-03 -2.0471E-08 -6.4333E-08 -2.6677E-09 -5.1324E-09 -3.7102E-08
          21   6         1.2500E-03 -1.6505E-08 -6.8340E-08 -2.5864E-09 -7.1641E-09 -3.9326E-08
          21   7         1.2500E-03 -2.0433E-08 -6.2071E-08 -4.7240E-09 -4.8053E-09 -4.5074E-08
          21   8         1.2500E-03 -1.6013E-08 -6.5624E-08 -4.7233E-09 -6.9731E-09 -4.7299E-08
          22   1         1.2500E-03 -2.3574E-09 -7.8984E-08  1.0492E-09 -1.8145E-09 -4.1737E-08
          22   2         1.2500E-03  2.1183E-09 -8.3290E-08  8.9328E-10 -2.7129E-09 -4.2244E-08
          22   3         1.2500E-03 -3.4635E-10 -7.6466E-08  8.5179E-11 -1.7592E-09 -5.0519E-08
          22   4         1.2500E-03  4.6980E-09 -8.0204E-08 -1.5580E-10 -2.8919E-09 -5.1025E-08
          22   5         1.2500E-03 -2.4798E-09 -7.8895E-08 -3.5964E-09 -8.8610E-09 -4.2351E-08
          22   6         1.2500E-03  2.0741E-09 -8.3357E-08 -3.7523E-09 -1.1465E-08 -4.2942E-08
          22   7         1.2500E-03 -5.2546E-10 -7.6349E-08 -6.2663E-09 -8.8056E-09 -5.1367E-08
          22   8         1.2500E-03  4.5970E-09 -8.0243E-08 -6.5073E-09 -1.1644E-08 -5.1958E-08
          23   1         1.2500E-03  1.7207E-08 -9.4325E-08  6.8467E-10 -3.4118E-09 -4.1119E-08
          23   2         1.2500E-03  2.1620E-08 -9.8429E-08  3.4530E-10 -4.4227E-09 -3.9549E-08
          23   3         1.2500E-03  2.1601E-08 -9.1502E-08 -4.3928E-10 -3.7745E-09 -4.9637E-08
          23   4         1.2500E-03  2.6617E-08 -9.5003E-08 -7.9409E-10 -5.0528E-09 -4.8067E-08
          23   5         1.2500E-03  1.7102E-08 -9.4453E-08 -4.0355E-09 -1.3451E-08 -4.1929E-08
          23   6         1.2500E-03  2.1604E-08 -9.8736E-08 -4.3749E-09 -1.6272E-08 -4.0374E-08
          23   7         1.2500E-03  2.1485E-08 -9.1625E-08 -6.9695E-09 -1.3814E-08 -5.0714E-08
          23   8         1.2500E-03  2.6590E-08 -9.5305E-08 -7.3243E-09 -1.6902E-08 -4.9159E-08
          24   1         1.2500E-03  3.5282E-08 -1.0825E-07  3.4654E-10 -5.1230E-09 -3.3883E-08
          24   2         1.2500E-03  3.8883E-08 -1.1152E-07 -9.7153E-11 -6.0252E-09 -3.0184E-08
          24   3         1.2500E-03  4.2100E-08 -1.0513E-07 -6.4335E-10 -5.8805E-09 -4.0752E-08
          24   4         1.2500E-03  4.6196E-08 -1.0790E-07 -9.8756E-10 -6.8635E-09 -3.7054E-08
          24   5         1.2500E-03  3.5239E-08 -1.0860E-07 -3.5872E-09 -1.8178E-08 -3.4688E-08
          24   6         1.2500E-03  3.8867E-08 -1.1193E-07 -4.0309E-09 -2.0566E-08 -3.0889E-08
          24   7         1.2500E-03  4.2123E-08 -1.0552E-07 -6.0627E-09 -1.8936E-08 -4.1638E-08
          24   8         1.2500E-03  4.6246E-08 -1.0835E-07 -6.4069E-09 -2.1404E-08 -3.7839E-08
          25   1         1.2500E-03  4.8507E-08 -1.1833E-07  1.8411E-10 -6.5513E-09 -2.0462E-08
          25   2         1.2500E-03  5.0557E-08 -1.2016E-07 -2.7399E-10 -7.0863E-09 -1.5119E-08
          25   3         1.2500E-03  5.7195E-08 -1.1498E-07 -3.7065E-10 -7.3792E-09 -2.4347E-08
          25   4         1.2500E-03  5.9510E-08 -1.1655E-07 -7.0010E-10 -7.8053E-09 -1.9004E-08
          25   5         1.2500E-03  4.8478E-08 -1.1873E-07 -2.0795E-09 -2.1928E-08 -2.0969E-08
          25   6         1.2500E-03  5.0491E-08 -1.2049E-07 -2.5376E-09 -2.3259E-08 -1.5497E-08
          25   7         1.2500E-03  5.7251E-08 -1.1543E-07 -3.4309E-09 -2.2756E-08 -2.4745E-08
          25   8         1.2500E-03  5.9530E-08 -1.1692E-07 -3.7604E-09 -2.3978E-08 -1.9273E-08
          26   1         1.2500E-03  5.4038E-08 -1.2261E-07  2.2335E-10 -7.2822E-09 -2.9858E-09
          26   2         1.2500E-03  5.4038E-08 -1.2261E-07 -2.2335E-10 -7.2822E-09  2.9858E-09
          26   3         1.2500E-03  6.3507E-08 -1.1911E-07  1.7289E-10 -7.9613E-09 -2.9858E-09
          26   4         1.2500E-03  6.3507E-08 -1.1911E-07 -1.7289E-10 -7.9613E-09  2.9858E-09
          26   5         1.2500E-03  5.3967E-08 -1.2291E-07  2.2335E-10 -2.3747E-08 -3.0363E-09
          26   6         1.2500E-03  5.3967E-08 -1.2291E-07 -2.2335E-10 -2.3747E-08  3.0363E-09
          26   7         1.2500E-03  6.3503E-08 -1.1945E-07  1.7289E-10 -2.4426E-08 -3.0363E-09
          26   8         1.2500E-03  6.3503E-08 -1.1945E-07 -1.7289E-10 -2.4426E-08  3.0363E-09
          27   1         1.2500E-03  5.0557E-08 -1.2016E-07  2.7399E-10 -7.0863E-09  1.5119E-08
          27   2         1.2500E-03  4.8507E-08 -1.1833E-07 -1.8411E-10 -6.5513E-09  2.0462E-08
          27   3         1.2500E-03  5.9510E-08 -1.1655E-07  7.0010E-10 -7.8053E-09  1.9004E-08
          27   4         1.2500E-03  5.7195E-08 -1.1498E-07  3.7065E-10 -7.3792E-09  2.4347E-08
          27   5         1.2500E-03  5.0491E-08 -1.2049E-07  2.5376E-09 -2.3259E-08  1.5497E-08
          27   6         1.2500E-03  4.8478E-08 -1.1873E-07  2.0795E-09 -2.1928E-08  2.0969E-08
          27   7         1.2500E-03  5.9530E-08 -1.1692E-07  3.7604E-09 -2.3978E-08  1.9273E-08
          27   8         1.2500E-03  5.7251E-08 -1.1543E-07  3.4309E-09 -2.2756E-08  2.4745E-08
          28   1         1.2500E-03  3.8883E-08 -1.1152E-07  9.7153E-11 -6.0252E-09  3.0184E-08
          28   2         1.2500E-03  3.5282E-08 -1.0825E-07 -3.4654E-10 -5.1230E-09  3.3883E-08
          28   3         1.2500E-03  4.6196E-08 -1.0790E-07  9.8756E-10 -6.8635E-09  3.7054E-08
          28   4         1.2500E-03  4.2100E-08 -1.0513E-07  6.4335E-10 -5.8805E-09  4.0752E-08
          28   5         1.2500E-03  3.8867E-08 -1.1193E-07  4.0309E-09 -2.0566E-08  3.0889E-08
          28   6         1.2500E-03  3.5239E-08 -1.0860E-07  3.5872E-09 -1.8178E-08  3.4688E-08
          28   7         1.2500E-03  4.6246E-08 -1.0835E-07  6.4069E-09 -2.1404E-08  3.7839E-08
          28   8         1.2500E-03  4.2123E-08 -1.0552E-07  6.0627E-09 -1.8936E-08  4.1638E-08
          29   1         1.2500E-03  2.1620E-08 -9.8429E-08 -3.4530E-10 -4.4227E-09  3.9549E-08
          29   2         1.2500E-03  1.7207E-08 -9.4325E-08 -6.8467E-10 -3.4118E-09  4.1119E-08
          29   3         1.2500E-03  2.6617E-08 -9.5003E-08  7.9409E-10 -5.0528E-09  4.8067E-08
          29   4         1.2500E-03  2.1601E-08 -9.1502E-08  4.3928E-10 -3.7745E-09  4.9637E-08
          29   5         1.2500E-03  2.1604E-08 -9.8736E-08  4.3749E-09 -1.6272E-08  4.0374E-08
          29   6         1.2500E-03  1.7102E-08 -9.4453E-08  4.0355E-09 -1.3451E-08  4.1929E-08
          29   7         1.2500E-03  2.6590E-08 -9.5305E-08  7.3243E-09 -1.6902E-08  4.9159E-08
          29   8         1.2500E-03  2.1485E-08 -9.1625E-08  6.9695E-09 -1.3814E-08  5.0714E-08
          30   1         1.2500E-03  2.1183E-09 -8.3290E-08 -8.9328E-10 -2.7129E-09  4.2244E-08
          30   2         1.2500E-03 -2.3574E-09 -7.8984E-08 -1.0492E-09 -1.8145E-09  4.1737E-08
          30   3         1.2500E-03  4.6980E-09 -8.0204E-08  1.5580E-10 -2.8919E-09  5.1025E-08
          30   4         1.2500E-03 -3.4635E-10 -7.6466E-08 -8.5179E-11 -1.7592E-09  5.0519E-08
          30   5         1.2500E-03  2.0741E-09 -8.3357E-08  3.7523E-09 -1.1465E-08  4.2942E-08
          30   6         1.2500E-03 -2.4798E-09 -7.8895E-08  3.5964E-09 -8.8610E-09  4.2351E-08
          30   7         1.2500E-03  4.5970E-09 -8.0243E-08  6.5073E-09 -1.1644E-08  5.1958E-08
          30   8         1.2500E-03 -5.2546E-10 -7.6349E-08  6.2663E-09 -8.8056E-09  5.1367E-08
          31   1         1.2500E-03 -1.6495E-08 -6.8440E-08 -1.3398E-09 -1.2399E-09  3.8873E-08
          31   2         1.2500E-03 -2.0416E-08 -6.4524E-08 -1.2585E-09 -5.6826E-10  3.6729E-08
          31   3         1.2500E-03 -1.5950E-08 -6.5751E-08 -5.6300E-10 -1.0489E-09  4.6710E-08
          31   4         1.2500E-03 -2.0324E-08 -6.2288E-08 -5.6228E-10 -2.4115E-10  4.4566E-08
          31   5         1.2500E-03 -1.6505E-08 -6.8340E-08  2.5864E-09 -7.1641E-09  3.9326E-08
          31   6         1.2500E-03 -2.0471E-08 -6.4333E-08  2.6677E-09 -5.1324E-09  3.7102E-08
          31   7         1.2500E-03 -1.6013E-08 -6.5624E-08  4.7233E-09 -6.9731E-09  4.7299E-08
          31   8         1.2500E-03 -2.0433E-08 -6.2071E-08  4.7240E-09 -4.8053E-09  4.5074E-08
          32   1         1.2500E-03 -3.1905E-08 -5.5773E-08 -1.4964E-09 -1.6594E-10  3.0988E-08
          32   2         1.2500E-03 -3.4871E-08 -5.2702E-08 -1.1629E-09  2.6159E-10  2.7786E-08
          32   3         1.2500E-03 -3.2799E-08 -5.3465E-08 -1.0039E-09  2.3770E-10  3.7025E-08
          32   4         1.2500E-03 -3.6079E-08 -5.0708E-08 -7.2900E-10  7.3821E-10  3.3823E-08
          32   5         1.2500E-03 -3.1817E-08 -5.5615E-08  1.3648E-09 -3.8871E-09  3.1217E-08
          32   6         1.2500E-03 -3.4808E-08 -5.2495E-08  1.6983E-09 -2.5166E-09  2.7957E-08
          32   7         1.2500E-03 -3.2750E-08 -5.3288E-08  2.8003E-09 -3.4834E-09  3.7327E-08
          32   8         1.2500E-03 -3.6055E-08 -5.0482E-08  3.0752E-09 -2.0399E-09  3.4068E-08
          33   1         1.2500E-03 -4.2788E-08 -4.6549E-08 -1.2666E-09  4.9962E-10  2.0319E-08
          33   2         1.2500E-03 -4.4609E-08 -4.4609E-08 -7.2242E-10  7.2242E-10  1.6558E-08
          33   3         1.2500E-03 -4.4550E-08 -4.4550E-08 -1.0139E-09  1.0139E-09  2.4080E-08
          33   4         1.2500E-03 -4.6549E-08 -4.2788E-08 -4.9962E-10  1.2666E-09  2.0319E-08
          33   5         1.2500E-03 -4.2597E-08 -4.6388E-08  4.3359E-10 -1.7370E-09  2.0402E-08
          33   6         1.2500E-03 -4.4427E-08 -4.4427E-08  9.7777E-10 -9.7777E-10  1.6611E-08
          33   7         1.2500E-03 -4.4379E-08 -4.4379E-08  1.2227E-09 -1.2227E-09  2.4193E-08
          33   8         1.2500E-03 -4.6388E-08 -4.2597E-08  1.7370E-09 -4.3359E-10  2.0402E-08
          34   1         1.2500E-03 -4.8605E-08 -4.1459E-08 -6.9857E-10  8.2867E-10  8.2552E-09
          34   2         1.2500E-03 -4.9216E-08 -4.0797E-08 -3.7186E-11  8.9616E-10  4.2702E-09
          34   3         1.2500E-03 -5.0781E-08 -3.9650E-08 -6.2349E-10  1.3860E-09  9.5282E-09
          34   4         1.2500E-03 -5.1449E-08 -3.9045E-08  2.8944E-11  1.4597E-09  5.5432E-09
          34   5         1.2500E-03 -4.8350E-08 -4.1308E-08 -1.3878E-10 -6.1230E-10  8.2720E-09
          34   6         1.2500E-03 -4.8963E-08 -4.0642E-08  5.2260E-10 -3.7309E-10  4.2781E-09
          34   7         1.2500E-03 -5.0532E-08 -3.9496E-08  1.0802E-10 -5.4927E-11  9.5512E-09
          34   8         1.2500E-03 -5.1202E-08 -3.8887E-08  7.6046E-10  1.9044E-10  5.5573E-09
          35   1         1.2500E-03 -5.7587E-08 -3.1397E-08 -9.7527E-11  1.4974E-09 -7.2655E-09
          35   2         1.2500E-03 -5.6928E-08 -3.1811E-08  5.3987E-10  1.3688E-09 -1.3609E-08
          35   3         1.2500E-03 -6.1114E-08 -2.8580E-08 -2.1877E-10  1.8752E-09 -8.3388E-09
          35   4         1.2500E-03 -6.0355E-08 -2.8894E-08  3.8649E-10  1.7299E-09 -1.4683E-08
          35   5         1.2500E-03 -5.7288E-08 -3.1357E-08 -1.0014E-09 -6.1004E-10 -7.2964E-09
          35   6         1.2500E-03 -5.6623E-08 -3.1783E-08 -3.6397E-10 -1.0378E-09 -1.3673E-08
          35   7         1.2500E-03 -6.0836E-08 -2.8530E-08 -1.4217E-09 -2.3223E-10 -8.3864E-09
          35   8         1.2500E-03 -6.0072E-08 -2.8855E-08 -8.1644E-10 -6.7665E-10 -1.4763E-08
          36   1         1.2500E-03 -5.2702E-08 -3.4871E-08  2.6159E-10  1.1629E-09 -2.7786E-08
          36   2         1.2500E-03 -5.0708E-08 -3.6079E-08  7.3821E-10  7.2900E-10 -3.3823E-08
          36   3         1.2500E-03 -5.5773E-08 -3.1905E-08 -1.6594E-10  1.4964E-09 -3.0988E-08
          36   4         1.2500E-03 -5.3465E-08 -3.2799E-08  2.3770E-10  1.0039E-09 -3.7025E-08
          36   5         1.2500E-03 -5.2495E-08 -3.4808E-08 -2.5166E-09 -1.6983E-09 -2.7957E-08
          36   6         1.2500E-03 -5.0482E-08 -3.6055E-08 -2.0399E-09 -3.0752E-09 -3.4068E-08
          36   7         1.2500E-03 -5.5615E-08 -3.1817E-08 -3.8871E-09 -1.3648E-09 -3.1217E-08
          36   8         1.2500E-03 -5.3288E-08 -3.2750E-08 -3.4834E-09 -2.8003E-09 -3.7327E-08
          37   1         1.2500E-03 -4.2142E-08 -4.2142E-08  2.5924E-10  2.5924E-10 -4.6708E-08
          37   2         1.2500E-03 -3.8814E-08 -4.4031E-08  4.6315E-10 -5.9028E-10 -5.1924E-08
          37   3         1.2500E-03 -4.4031E-08 -3.8814E-08 -5.9028E-10  4.6315E-10 -5.1924E-08
          37   4         1.2500E-03 -4.0140E-08 -4.0140E-08 -5.2165E-10 -5.2165E-10 -5.7140E-08
          37   5         1.2500E-03 -4.2074E-08 -4.2074E-08 -4.5080E-09 -4.5080E-09 -4.7171E-08
          37   6         1.2500E-03 -3.8701E-08 -4.4053E-08 -4.3041E-09 -7.0458E-09 -5.2522E-08
          37   7         1.2500E-03 -4.4053E-08 -3.8701E-08 -7.0458E-09 -4.3041E-09 -5.2522E-08
          37   8         1.2500E-03 -4.0117E-08 -4.0117E-08 -6.9772E-09 -6.9772E-09 -5.7874E-08
          38   1         1.2500E-03 -2.5985E-08 -5.2840E-08 -2.0673E-10 -1.4042E-09 -6.2002E-08
          38   2         1.2500E-03 -2.1453E-08 -5.5203E-08 -3.0694E-10 -2.7783E-09 -6.5584E-08
          38   3         1.2500E-03 -2.5709E-08 -4.8983E-08 -1.6115E-09 -1.4825E-09 -6.8897E-08
          38   4         1.2500E-03 -2.0342E-08 -5.0511E-08 -1.9068E-09 -3.1228E-09 -7.2479E-08
          38   5         1.2500E-03 -2.6026E-08 -5.2859E-08 -6.9078E-09 -9.3946E-09 -6.2947E-08
          38   6         1.2500E-03 -2.1405E-08 -5.5399E-08 -7.0080E-09 -1.3274E-08 -6.6724E-08
          38   7         1.2500E-03 -2.5880E-08 -4.8937E-08 -1.0818E-08 -9.4729E-09 -7.0109E-08
          38   8         1.2500E-03 -2.0424E-08 -5.0642E-08 -1.1113E-08 -1.3618E-08 -7.3885E-08
          39   1         1.2500E-03 -5.1095E-09 -6.6066E-08 -9.9052E-10 -3.9724E-09 -7.0800E-08
          39   2         1.2500E-03  2.3647E-10 -6.8618E-08 -1.3188E-09 -5.8606E-09 -7.1768E-08
          39   3         1.2500E-03 -1.5626E-09 -6.1551E-08 -2.9653E-09 -4.5440E-09 -7.8698E-08
          39   4         1.2500E-03  4.8437E-09 -6.3042E-08 -3.4469E-09 -6.7864E-09 -7.9666E-08
          39   5         1.2500E-03 -5.1378E-09 -6.6338E-08 -9.1307E-09 -1.6549E-08 -7.2334E-08
          39   6         1.2500E-03  3.2624E-10 -6.9126E-08 -9.4590E-09 -2.1619E-08 -7.3456E-08
          39   7         1.2500E-03 -1.6932E-09 -6.1772E-08 -1.4287E-08 -1.7121E-08 -8.0586E-08
          39   8         1.2500E-03  4.8313E-09 -6.3499E-08 -1.4768E-08 -2.2545E-08 -8.1708E-08
          40   1         1.2500E-03  1.8242E-08 -8.0235E-08 -1.6920E-09 -7.3324E-09 -7.0084E-08
          40   2         1.2500E-03  2.3651E-08 -8.2605E-08 -2.0757E-09 -9.4650E-09 -6.7625E-08
          40   3         1.2500E-03  2.5940E-08 -7.4995E-08 -3.9904E-09 -8.5516E-09 -7.7864E-08
          40   4         1.2500E-03  3.2493E-08 -7.6223E-08 -4.4378E-09 -1.1132E-08 -7.5405E-08
          40   5         1.2500E-03  1.8392E-08 -8.0919E-08 -1.0140E-08 -2.5510E-08 -7.2004E-08
          40   6         1.2500E-03  2.3951E-08 -8.3589E-08 -1.0524E-08 -3.1072E-08 -6.9609E-08
          40   7         1.2500E-03  2.6048E-08 -7.5659E-08 -1.5867E-08 -2.6729E-08 -8.0232E-08
          40   8         1.2500E-03  3.2750E-08 -7.7185E-08 -1.6315E-08 -3.2738E-08 -7.7837E-08
          41   1         1.2500E-03  4.0315E-08 -9.3126E-08 -1.8187E-09 -1.0926E-08 -5.7949E-08
          41   2         1.2500E-03  4.4745E-08 -9.4902E-08 -2.0974E-09 -1.2785E-08 -5.1910E-08
          41   3         1.2499E-03  5.2335E-08 -8.7145E-08 -4.0399E-09 -1.3027E-08 -6.4155E-08
          41   4         1.2499E-03  5.7784E-08 -8.7901E-08 -4.2393E-09 -1.5624E-08 -5.8116E-08
          41   5         1.2500E-03  4.0830E-08 -9.4434E-08 -8.9018E-09 -3.4908E-08 -5.9789E-08
          41   6         1.2500E-03  4.5505E-08 -9.6702E-08 -9.1805E-09 -3.9827E-08 -5.3671E-08
          41   7         1.2499E-03  5.2902E-08 -8.8479E-08 -1.4183E-08 -3.7009E-08 -6.6733E-08
          41   8         1.2499E-03  5.8598E-08 -8.9727E-08 -1.4382E-08 -4.2666E-08 -6.0615E-08
          42   1         1.2500E-03  5.6596E-08 -1.0231E-07 -1.1480E-09 -1.3858E-08 -3.4973E-08
          42   2         1.2500E-03  5.9074E-08 -1.0322E-07 -1.3124E-09 -1.4929E-08 -2.6209E-08
          42   3         1.2499E-03  7.2057E-08 -9.5611E-08 -2.7170E-09 -1.7250E-08 -3.8363E-08
          42   4         1.2499E-03  7.5168E-08 -9.5890E-08 -2.5593E-09 -1.9093E-08 -2.9599E-08
          42   5         1.2500E-03  5.7617E-08 -1.0451E-07 -5.1941E-09 -4.2714E-08 -3.6225E-08
          42   6         1.2500E-03  6.0353E-08 -1.0594E-07 -5.3585E-09 -4.5682E-08 -2.7139E-08
          42   7         1.2499E-03  7.3293E-08 -9.7925E-08 -8.6596E-09 -4.6106E-08 -4.0386E-08
          42   8         1.2499E-03  7.6661E-08 -9.8718E-08 -8.5019E-09 -4.9845E-08 -3.1300E-08
          43   1         1.2499E-03  6.3367E-08 -1.0590E-07  6.2540E-11 -1.5321E-08 -4.8853E-09
          43   2         1.2499E-03  6.3367E-08 -1.0590E-07 -6.2540E-11 -1.5321E-08  4.8853E-09
          43   3         1.2499E-03  8.0363E-08 -9.8670E-08 -1.8846E-10 -1.9767E-08 -4.8853E-09
          43   4         1.2499E-03  8.0363E-08 -9.8670E-08  1.8846E-10 -1.9767E-08  4.8853E-09
          43   5         1.2499E-03  6.4766E-08 -1.0882E-07  6.2540E-11 -4.6768E-08 -5.1363E-09
          43   6         1.2499E-03  6.4766E-08 -1.0882E-07 -6.2540E-11 -4.6768E-08  5.1363E-09
          43   7         1.2499E-03  8.2097E-08 -1.0176E-07 -1.8846E-10 -5.1214E-08 -5.1363E-09
          43   8         1.2499E-03  8.2097E-08 -1.0176E-07  1.8846E-10 -5.1214E-08  5.1363E-09
          44   1         1.2500E-03  5.9074E-08 -1.0322E-07  1.3124E-09 -1.4929E-08  2.6209E-08
          44   2         1.2500E-03  5.6596E-08 -1.0231E-07  1.1480E-09 -1.3858E-08  3.4973E-08
          44   3         1.2499E-03  7.5168E-08 -9.5890E-08  2.5593E-09 -1.9093E-08  2.9599E-08
          44   4         1.2499E-03  7.2057E-08 -9.5611E-08  2.7170E-09 -1.7250E-08  3.8363E-08
          44   5         1.2500E-03  6.0353E-08 -1.0594E-07  5.3585E-09 -4.5682E-08  2.7139E-08
          44   6         1.2500E-03  5.7617E-08 -1.0451E-07  5.1941E-09 -4.2714E-08  3.6225E-08
          44   7         1.2499E-03  7.6661E-08 -9.8718E-08  8.5019E-09 -4.9845E-08  3.1300E-08
          44   8         1.2499E-03  7.3293E-08 -9.7925E-08  8.6596E-09 -4.6106E-08  4.0386E-08
          45   1         1.2500E-03  4.4745E-08 -9.4902E-08  2.0974E-09 -1.2785E-08  5.1910E-08
          45   2         1.2500E-03  4.0315E-08 -9.3126E-08  1.8187E-09 -1.0926E-08  5.7949E-08
          45   3         1.2499E-03  5.7784E-08 -8.7901E-08  4.2393E-09 -1.5624E-08  5.8116E-08
          45   4         1.2499E-03  5.2335E-08 -8.7145E-08  4.0399E-09 -1.3027E-08  6.4155E-08
          45   5         1.2500E-03  4.5505E-08 -9.6702E-08  9.1805E-09 -3.9827E-08  5.3671E-08
          45   6         1.2500E-03  4.0830E-08 -9.4434E-08  8.9018E-09 -3.4908E-08  5.9789E-08
          45   7         1.2499E-03  5.8598E-08 -8.9727E-08  1.4382E-08 -4.2666E-08  6.0615E-08
          45   8         1.2499E-03  5.2902E-08 -8.8479E-08  1.4183E-08 -3.7009E-08  6.6733E-08
          46   1         1.2500E-03  2.3651E-08 -8.2605E-08  2.0757E-09 -9.4650E-09  6.7625E-08
          46   2         1.2500E-03  1.8242E-08 -8.0235E-08  1.6920E-09 -7.3324E-09  7.0084E-08
          46   3         1.2500E-03  3.2493E-08 -7.6223E-08  4.4378E-09 -1.1132E-08  7.5405E-08
          46   4         1.2500E-03  2.5940E-08 -7.4995E-08  3.9904E-09 -8.5516E-09  7.7864E-08
          46   5         1.2500E-03  2.3951E-08 -8.3589E-08  1.0524E-08 -3.1072E-08  6.9609E-08
          46   6         1.2500E-03  1.8392E-08 -8.0919E-08  1.0140E-08 -2.5510E-08  7.2004E-08
          46   7         1.2500E-03  3.2750E-08 -7.7185E-08  1.6315E-08 -3.2738E-08  7.7837E-08
          46   8         1.2500E-03  2.6048E-08 -7.5659E-08  1.5867E-08 -2.6729E-08  8.0232E-08
          47   1         1.2500E-03  2.3647E-10 -6.8618E-08  1.3188E-09 -5.8606E-09  7.1768E-08
          47   2         1.2500E-03 -5.1095E-09 -6.6066E-08  9.9052E-10 -3.9724E-09  7.0800E-08
          47   3         1.2500E-03  4.8437E-09 -6.3042E-08  3.4469E-09 -6.7864E-09  7.9666E-08
          47   4         1.2500E-03 -1.5626E-09 -6.1551E-08  2.9653E-09 -4.5440E-09  7.8698E-08
          47   5         1.2500E-03  3.2624E-10 -6.9126E-08  9.4590E-09 -2.1619E-08  7.3456E-08
          47   6         1.2500E-03 -5.1378E-09 -6.6338E-08  9.1307E-09 -1.6549E-08  7.2334E-08
          47   7         1.2500E-03  4.8313E-09 -6.3499E-08  1.4768E-08 -2.2545E-08  8.1708E-08
          47   8         1.2500E-03 -1.6932E-09 -6.1772E-08  1.4287E-08 -1.7121E-08  8.0586E-08
          48   1         1.2500E-03 -2.1453E-08 -5.5203E-08  3.0694E-10 -2.7783E-09  6.5584E-08
          48   2         1.2500E-03 -2.5985E-08 -5.2840E-08  2.0673E-10 -1.4042E-09  6.2002E-08
          48   3         1.2500E-03 -2.0342E-08 -5.0511E-08  1.9068E-09 -3.1228E-09  7.2479E-08
          48   4         1.2500E-03 -2.5709E-08 -4.8983E-08  1.6115E-09 -1.4825E-09  6.8897E-08
          48   5         1.2500E-03 -2.1405E-08 -5.5399E-08  7.0080E-09 -1.3274E-08  6.6724E-08
          48   6         1.2500E-03 -2.6026E-08 -5.2859E-08  6.9078E-09 -9.3946E-09  6.2947E-08
          48   7         1.2500E-03 -2.0424E-08 -5.0642E-08  1.1113E-08 -1.3618E-08  7.3885E-08
          48   8         1.2500E-03 -2.5880E-08 -4.8937E-08  1.0818E-08 -9.4729E-09  7.0109E-08
          49   1         1.2500E-03 -3.8814E-08 -4.4031E-08 -4.6315E-10 -5.9028E-10  5.1924E-08
          49   2         1.2500E-03 -4.2142E-08 -4.2142E-08 -2.5924E-10  2.5924E-10  4.6708E-08
          49   3         1.2500E-03 -4.0140E-08 -4.0140E-08  5.2165E-10 -5.2165E-10  5.7140E-08
          49   4         1.2500E-03 -4.4031E-08 -3.8814E-08  5.9028E-10  4.6315E-10  5.1924E-08
          49   5         1.2500E-03 -3.8701E-08 -4.4053E-08  4.3041E-09 -7.0458E-09  5.2522E-08
          49   6         1.2500E-03 -4.2074E-08 -4.2074E-08  4.5080E-09 -4.5080E-09  4.7171E-08
          49   7         1.2500E-03 -4.0117E-08 -4.0117E-08  6.9772E-09 -6.9772E-09  5.7874E-08
          49   8         1.2500E-03 -4.4053E-08 -3.8701E-08  7.0458E-09 -4.3041E-09  5.2522E-08
          50   1         1.2500E-03 -5.0708E-08 -3.6079E-08 -7.3821E-10  7.2900E-10  3.3823E-08
          50   2         1.2500E-03 -5.2702E-08 -3.4871E-08 -2.6159E-10  1.1629E-09  2.7786E-08
          50   3         1.2500E-03 -5.3465E-08 -3.2799E-08 -2.3770E-10  1.0039E-09  3.7025E-08
          50   4         1.2500E-03 -5.5773E-08 -3.1905E-08  1.6594E-10  1.4964E-09  3.0988E-08
          50   5         1.2500E-03 -5.0482E-08 -3.6055E-08  2.0399E-09 -3.0752E-09  3.4068E-08
          50   6         1.2500E-03 -5.2495E-08 -3.4808E-08  2.5166E-09 -1.6983E-09  2.7957E-08
          50   7         1.2500E-03 -5.3288E-08 -3.2750E-08  3.4834E-09 -2.8003E-09  3.7327E-08
          50   8         1.2500E-03 -5.5615E-08 -3.1817E-08  3.8871E-09 -1.3648E-09  3.1217E-08
          51   1         1.2500E-03 -5.6928E-08 -3.1811E-08 -5.3987E-10  1.3688E-09  1.3609E-08
          51   2         1.2500E-03 -5.7587E-08 -3.1397E-08  9.7527E-11  1.4974E-09  7.2655E-09
          51   3         1.2500E-03 -6.0355E-08 -2.8894E-08 -3.8649E-10  1.7299E-09  1.4683E-08
          51   4         1.2500E-03 -6.1114E-08 -2.8580E-08  2.1877E-10  1.8752E-09  8.3388E-09
          51   5         1.2500E-03 -5.6623E-08 -3.1783E-08  3.6397E-10 -1.0378E-09  1.3673E-08
          51   6         1.2500E-03 -5.7288E-08 -3.1357E-08  1.0014E-09 -6.1004E-10  7.2964E-09
          51   7         1.2500E-03 -6.0072E-08 -2.8855E-08  8.1644E-10 -6.7665E-10  1.4763E-08
          51   8         1.2500E-03 -6.0836E-08 -2.8530E-08  1.4217E-09 -2.3223E-10  8.3864E-09
          52   1         1.2500E-03 -6.9758E-08 -1.7642E-08 -3.2999E-10  1.7952E-09 -9.6518E-09
          52   2         1.2500E-03 -6.9033E-08 -1.7625E-08  2.3731E-10  1.5888E-09 -1.7801E-08
          52   3         1.2500E-03 -7.4243E-08 -1.3978E-08 -5.1262E-10  1.9359E-09 -1.0361E-08
          52   4         1.2500E-03 -7.3375E-08 -1.3818E-08 -1.6883E-11  1.7077E-09 -1.8510E-08
          52   5         1.2500E-03 -6.9427E-08 -1.7737E-08 -1.7988E-09 -1.0494E-09 -9.7279E-09
          52   6         1.2500E-03 -6.8694E-08 -1.7735E-08 -1.2315E-09 -1.6831E-09 -1.7949E-08
          52   7         1.2500E-03 -7.3959E-08 -1.4049E-08 -2.4088E-09 -9.0869E-10 -1.0459E-08
          52   8         1.2500E-03 -7.3084E-08 -1.3904E-08 -1.9131E-09 -1.5643E-09 -1.8679E-08
          53   1         1.2500E-03 -6.4524E-08 -2.0416E-08 -5.6826E-10  1.2585E-09 -3.6729E-08
          53   2         1.2500E-03 -6.2288E-08 -2.0324E-08 -2.4115E-10  5.6228E-10 -4.4566E-08
          53   3         1.2500E-03 -6.8440E-08 -1.6495E-08 -1.2399E-09  1.3398E-09 -3.8873E-08
          53   4         1.2500E-03 -6.5751E-08 -1.5950E-08 -1.0489E-09  5.6300E-10 -4.6710E-08
          53   5         1.2500E-03 -6.4333E-08 -2.0471E-08 -5.1324E-09 -2.6677E-09 -3.7102E-08
          53   6         1.2500E-03 -6.2071E-08 -2.0433E-08 -4.8053E-09 -4.7240E-09 -4.5074E-08
          53   7         1.2500E-03 -6.8340E-08 -1.6505E-08 -7.1641E-09 -2.5864E-09 -3.9326E-08
          53   8         1.2500E-03 -6.5624E-08 -1.6013E-08 -6.9731E-09 -4.7233E-09 -4.7299E-08
          54   1         1.2500E-03 -5.2840E-08 -2.5985E-08 -1.4042E-09 -2.0673E-10 -6.2002E-08
          54   2         1.2500E-03 -4.8983E-08 -2.5709E-08 -1.4825E-09 -1.6115E-09 -6.8897E-08
          54   3         1.2500E-03 -5.5203E-08 -2.1453E-08 -2.7783E-09 -3.0694E-10 -6.5584E-08
          54   4         1.2500E-03 -5.0511E-08 -2.0342E-08 -3.1228E-09 -1.9068E-09 -7.2479E-08
          54   5         1.2500E-03 -5.2859E-08 -2.6026E-08 -9.3946E-09 -6.9078E-09 -6.2947E-08
          54   6         1.2500E-03 -4.8937E-08 -2.5880E-08 -9.4729E-09 -1.0818E-08 -7.0109E-08
          54   7         1.2500E-03 -5.5399E-08 -2.1405E-08 -1.3274E-08 -7.0080E-09 -6.6724E-08
          54   8         1.2500E-03 -5.0642E-08 -2.0424E-08 -1.3618E-08 -1.1113E-08 -7.3885E-08
          55   1         1.2500E-03 -3.4191E-08 -3.4191E-08 -2.9755E-09 -2.9755E-09 -8.2842E-08
          55   2         1.2500E-03 -2.8725E-08 -3.3615E-08 -3.4583E-09 -5.2973E-09 -8.7732E-08
          55   3         1.2500E-03 -3.3615E-08 -2.8725E-08 -5.2973E-09 -3.4583E-09 -8.7732E-08
          55   4         1.2500E-03 -2.6887E-08 -2.6887E-08 -6.0973E-09 -6.0973E-09 -9.2622E-08
          55   5         1.2500E-03 -3.4352E-08 -3.4352E-08 -1.4484E-08 -1.4484E-08 -8.4716E-08
          55   6         1.2500E-03 -2.8780E-08 -3.3987E-08 -1.4967E-08 -2.0589E-08 -8.9923E-08
          55   7         1.2500E-03 -3.3987E-08 -2.8780E-08 -2.0589E-08 -1.4967E-08 -8.9923E-08
          55   8         1.2500E-03 -2.7154E-08 -2.7154E-08 -2.1389E-08 -2.1389E-08 -9.5130E-08
          56   1         1.2500E-03 -9.0320E-09 -4.4421E-08 -4.8945E-09 -7.3214E-09 -9.5298E-08
          56   2         1.2500E-03 -2.3550E-09 -4.3486E-08 -5.5538E-09 -1.0530E-08 -9.6782E-08
          56   3         1.2500E-03 -3.8613E-09 -3.7766E-08 -8.1902E-09 -8.4341E-09 -1.0104E-07
          56   4         1.2499E-03  4.4585E-09 -3.5188E-08 -9.1817E-09 -1.2179E-08 -1.0252E-07
          56   5         1.2500E-03 -9.1006E-09 -4.4944E-08 -1.9184E-08 -2.5802E-08 -9.8194E-08
          56   6         1.2500E-03 -2.2447E-09 -4.4366E-08 -1.9843E-08 -3.3939E-08 -1.0001E-07
          56   7         1.2500E-03 -4.1514E-09 -3.8178E-08 -2.7408E-08 -2.6915E-08 -1.0447E-07
          56   8         1.2499E-03  4.3474E-09 -3.5957E-08 -2.8400E-08 -3.5589E-08 -1.0629E-07
          57   1         1.2499E-03  2.0188E-08 -5.5403E-08 -6.2827E-09 -1.3064E-08 -9.4929E-08
          57   2         1.2499E-03  2.7165E-08 -5.4237E-08 -6.7840E-09 -1.6780E-08 -9.1861E-08
          57   3         1.2499E-03  3.1301E-08 -4.7358E-08 -1.0247E-08 -1.5149E-08 -1.0074E-07
          57   4         1.2499E-03  4.0089E-08 -4.4382E-08 -1.0832E-08 -1.9516E-08 -9.7673E-08
          57   5         1.2499E-03  2.0549E-08 -5.6626E-08 -2.1403E-08 -4.0266E-08 -9.8632E-08
          57   6         1.2499E-03  2.7743E-08 -5.5895E-08 -2.1905E-08 -4.9414E-08 -9.5647E-08
          57   7         1.2499E-03  3.1606E-08 -4.8553E-08 -3.0800E-08 -4.2351E-08 -1.0510E-07
          57   8         1.2499E-03  4.0611E-08 -4.6012E-08 -3.1385E-08 -5.2151E-08 -1.0211E-07
          58   1         1.2499E-03  4.8765E-08 -6.5304E-08 -6.2002E-09 -1.9419E-08 -7.8811E-08
          58   2         1.2499E-03  5.4740E-08 -6.4281E-08 -6.2528E-09 -2.2914E-08 -7.0900E-08
          58   3         1.2499E-03  6.6150E-08 -5.5831E-08 -9.8811E-09 -2.2433E-08 -8.3762E-08
          58   4         1.2499E-03  7.3680E-08 -5.3251E-08 -9.6122E-09 -2.6032E-08 -7.5851E-08
          58   5         1.2499E-03  4.9735E-08 -6.7296E-08 -1.9172E-08 -5.5750E-08 -8.2569E-08
          58   6         1.2499E-03  5.5744E-08 -6.6343E-08 -1.9225E-08 -6.3914E-08 -7.4337E-08
          58   7         1.2499E-03  6.7334E-08 -5.7929E-08 -2.7521E-08 -5.8764E-08 -8.7625E-08
          58   8         1.2499E-03  7.4899E-08 -5.5420E-08 -2.7252E-08 -6.7032E-08 -7.9393E-08
          59   1         1.2499E-03  7.0593E-08 -7.2182E-08 -4.1216E-09 -2.5002E-08 -4.7636E-08
          59   2         1.2499E-03  7.4116E-08 -7.1636E-08 -3.6255E-09 -2.7210E-08 -3.5943E-08
          59   3         1.2499E-03  9.2943E-08 -6.1525E-08 -6.3901E-09 -2.7980E-08 -5.0613E-08
          59   4         1.2499E-03  9.7337E-08 -6.0108E-08 -5.2914E-09 -2.9701E-08 -3.8920E-08
          59   5         1.2499E-03  7.1916E-08 -7.4333E-08 -1.1714E-08 -6.8666E-08 -5.0201E-08
          59   6         1.2499E-03  7.5277E-08 -7.3462E-08 -1.1218E-08 -7.3487E-08 -3.7906E-08
          59   7         1.2499E-03  9.4668E-08 -6.3877E-08 -1.6595E-08 -7.1645E-08 -5.2690E-08
          59   8         1.2499E-03  9.8899E-08 -6.2135E-08 -1.5496E-08 -7.5977E-08 -4.0395E-08
          60   1         1.2499E-03  7.9979E-08 -7.4506E-08 -3.8375E-10 -2.8019E-08 -6.5836E-09
          60   2         1.2499E-03  7.9979E-08 -7.4506E-08  3.8375E-10 -2.8019E-08  6.5836E-09
          60   3         1.2498E-03  1.0450E-07 -6.3151E-08 -6.6629E-10 -3.0330E-08 -6.5836E-09
          60   4         1.2498E-03  1.0450E-07 -6.3151E-08  6.6629E-10 -3.0330E-08  6.5836E-09
          60   5         1.2499E-03  8.1261E-08 -7.6303E-08 -3.8375E-10 -7.5252E-08 -6.8662E-09
          60   6         1.2499E-03  8.1261E-08 -7.6303E-08  3.8375E-10 -7.5252E-08  6.8662E-09
          60   7         1.2499E-03  1.0616E-07 -6.5136E-08 -6.6629E-10 -7.7563E-08 -6.8662E-09
          60   8         1.2499E-03  1.0616E-07 -6.5136E-08  6.6629E-10 -7.7563E-08  6.8662E-09
          61   1         1.2499E-03  7.4116E-08 -7.1636E-08  3.6255E-09 -2.7210E-08  3.5943E-08
          61   2         1.2499E-03  7.0593E-08 -7.2182E-08  4.1216E-09 -2.5002E-08  4.7636E-08
          61   3         1.2499E-03  9.7337E-08 -6.0108E-08  5.2914E-09 -2.9701E-08  3.8920E-08
          61   4         1.2499E-03  9.2943E-08 -6.1525E-08  6.3901E-09 -2.7980E-08  5.0613E-08
          61   5         1.2499E-03  7.5277E-08 -7.3462E-08  1.1218E-08 -7.3487E-08  3.7906E-08
          61   6         1.2499E-03  7.1916E-08 -7.4333E-08  1.1714E-08 -6.8666E-08  5.0201E-08
          61   7         1.2499E-03  9.8899E-08 -6.2135E-08  1.5496E-08 -7.5977E-08  4.0395E-08
          61   8         1.2499E-03  9.4668E-08 -6.3877E-08  1.6595E-08 -7.1645E-08  5.2690E-08
          62   1         1.2499E-03  5.4740E-08 -6.4281E-08  6.2528E-09 -2.2914E-08  7.0900E-08
          62   2         1.2499E-03  4.8765E-08 -6.5304E-08  6.2002E-09 -1.9419E-08  7.8811E-08
          62   3         1.2499E-03  7.3680E-08 -5.3251E-08  9.6122E-09 -2.6032E-08  7.5851E-08
          62   4         1.2499E-03  6.6150E-08 -5.5831E-08  9.8811E-09 -2.2433E-08  8.3762E-08
          62   5         1.2499E-03  5.5744E-08 -6.6343E-08  1.9225E-08 -6.3914E-08  7.4337E-08
          62   6         1.2499E-03  4.9735E-08 -6.7296E-08  1.9172E-08 -5.5750E-08  8.2569E-08
          62   7         1.2499E-03  7.4899E-08 -5.5420E-08  2.7252E-08 -6.7032E-08  7.9393E-08
          62   8         1.2499E-03  6.7334E-08 -5.7929E-08  2.7521E-08 -5.8764E-08  8.7625E-08
          63   1         1.2499E-03  2.7165E-08 -5.4237E-08  6.7840E-09 -1.6780E-08  9.1861E-08
          63   2         1.2499E-03  2.0188E-08 -5.5403E-08  6.2827E-09 -1.3064E-08  9.4929E-08
          63   3         1.2499E-03  4.0089E-08 -4.4382E-08  1.0832E-08 -1.9516E-08  9.7673E-08
          63   4         1.2499E-03  3.1301E-08 -4.7358E-08  1.0247E-08 -1.5149E-08  1.0074E-07
          63   5         1.2499E-03  2.7743E-08 -5.5895E-08  2.1905E-08 -4.9414E-08  9.5647E-08
          63   6         1.2499E-03  2.0549E-08 -5.6626E-08  2.1403E-08 -4.0266E-08  9.8632E-08
          63   7         1.2499E-03  4.0611E-08 -4.6012E-08  3.1385E-08 -5.2151E-08  1.0211E-07
          63   8         1.2499E-03  3.1606E-08 -4.8553E-08  3.0800E-08 -4.2351E-08  1.0510E-07
          64   1         1.2500E-03 -2.3550E-09 -4.3486E-08  5.5538E-09 -1.0530E-08  9.6782E-08
          64   2         1.2500E-03 -9.0320E-09 -4.4421E-08  4.8945E-09 -7.3214E-09  9.5298E-08
          64   3         1.2499E-03  4.4585E-09 -3.5188E-08  9.1817E-09 -1.2179E-08  1.0252E-07
          64   4         1.2500E-03 -3.8613E-09 -3.7766E-08  8.1902E-09 -8.4341E-09  1.0104E-07
          64   5         1.2500E-03 -2.2447E-09 -4.4366E-08  1.9843E-08 -3.3939E-08  1.0001E-07
          64   6         1.2500E-03 -9.1006E-09 -4.4944E-08  1.9184E-08 -2.5802E-08  9.8194E-08
          64   7         1.2499E-03  4.3474E-09 -3.5957E-08  2.8400E-08 -3.5589E-08  1.0629E-07
          64   8         1.2500E-03 -4.1514E-09 -3.8178E-08  2.7408E-08 -2.6915E-08  1.0447E-07
          65   1         1.2500E-03 -2.8725E-08 -3.3615E-08  3.4583E-09 -5.2973E-09  8.7732E-08
          65   2         1.2500E-03 -3.4191E-08 -3.4191E-08  2.9755E-09 -2.9755E-09  8.2842E-08
          65   3         1.2500E-03 -2.6887E-08 -2.6887E-08  6.0973E-09 -6.0973E-09  9.2622E-08
          65   4         1.2500E-03 -3.3615E-08 -2.8725E-08  5.2973E-09 -3.4583E-09  8.7732E-08
          65   5         1.2500E-03 -2.8780E-08 -3.3987E-08  1.4967E-08 -2.0589E-08  8.9923E-08
          65   6         1.2500E-03 -3.4352E-08 -3.4352E-08  1.4484E-08 -1.4484E-08  8.4716E-08
          65   7         1.2500E-03 -2.7154E-08 -2.7154E-08  2.1389E-08 -2.1389E-08  9.5130E-08
          65   8         1.2500E-03 -3.3987E-08 -2.8780E-08  2.0589E-08 -1.4967E-08  8.9923E-08
          66   1         1.2500E-03 -4.8983E-08 -2.5709E-08  1.4825E-09 -1.6115E-09  6.8897E-08
          66   2         1.2500E-03 -5.2840E-08 -2.5985E-08  1.4042E-09 -2.0673E-10  6.2002E-08
          66   3         1.2500E-03 -5.0511E-08 -2.0342E-08  3.1228E-09 -1.9068E-09  7.2479E-08
          66   4         1.2500E-03 -5.5203E-08 -2.1453E-08  2.7783E-09 -3.0694E-10  6.5584E-08
          66   5         1.2500E-03 -4.8937E-08 -2.5880E-08  9.4729E-09 -1.0818E-08  7.0109E-08
          66   6         1.2500E-03 -5.2859E-08 -2.6026E-08  9.3946E-09 -6.9078E-09  6.2947E-08
          66   7         1.2500E-03 -5.0642E-08 -2.0424E-08  1.3618E-08 -1.1113E-08  7.3885E-08
          66   8         1.2500E-03 -5.5399E-08 -2.1405E-08  1.3274E-08 -7.0080E-09  6.6724E-08
          67   1         1.2500E-03 -6.2288E-08 -2.0324E-08  2.4115E-10  5.6228E-10  4.4566E-08
          67   2         1.2500E-03 -6.4524E-08 -2.0416E-08  5.6826E-10  1.2585E-09  3.6729E-08
          67   3         1.2500E-03 -6.5751E-08 -1.5950E-08  1.0489E-09  5.6300E-10  4.6710E-08
          67   4         1.2500E-03 -6.8440E-08 -1.6495E-08  1.2399E-09  1.3398E-09  3.8873E-08
          67   5         1.2500E-03 -6.2071E-08 -2.0433E-08  4.8053E-09 -4.7240E-09  4.5074E-08
          67   6         1.2500E-03 -6.4333E-08 -2.0471E-08  5.1324E-09 -2.6677E-09  3.7102E-08
          67   7         1.2500E-03 -6.5624E-08 -1.6013E-08  6.9731E-09 -4.7233E-09  4.7299E-08
          67   8         1.2500E-03 -6.8340E-08 -1.6505E-08  7.1641E-09 -2.5864E-09  3.9326E-08
          68   1         1.2500E-03 -6.9033E-08 -1.7625E-08 -2.3731E-10  1.5888E-09  1.7801E-08
          68   2         1.2500E-03 -6.9758E-08 -1.7642E-08  3.2999E-10  1.7952E-09  9.6518E-09
          68   3         1.2500E-03 -7.3375E-08 -1.3818E-08  1.6883E-11  1.7077E-09  1.8510E-08
          68   4         1.2500E-03 -7.4243E-08 -1.3978E-08  5.1262E-10  1.9359E-09  1.0361E-08
          68   5         1.2500E-03 -6.8694E-08 -1.7735E-08  1.2315E-09 -1.6831E-09  1.7949E-08
          68   6         1.2500E-03 -6.9427E-08 -1.7737E-08  1.7988E-09 -1.0494E-09  9.7279E-09
          68   7         1.2500E-03 -7.3084E-08 -1.3904E-08  1.9131E-09 -1.5643E-09  1.8679E-08
          68   8         1.2500E-03 -7.3959E-08 -1.4049E-08  2.4088E-09 -9.0869E-10  1.0459E-08
          69   1         1.2500E-03 -8.4538E-08 -7.3387E-10 -6.6349E-10  1.7777E-09 -1.1005E-08
          69   2         1.2500E-03 -8.3738E-08 -9.0951E-11 -2.3372E-10  1.5027E-09 -2.0047E-08
          69   3         1.2500E-03 -8.9462E-08  3.3847E-09 -8.9305E-10  1.6733E-09 -1.1161E-08
          69   4         1.2500E-03 -8.8490E-08  4.2005E-09 -5.7195E-10  1.3834E-09 -2.0204E-08
          69   5         1.2500E-03 -8.4217E-08 -9.4677E-10 -2.9059E-09 -1.5352E-09 -1.1130E-08
          69   6         1.2500E-03 -8.3412E-08 -3.1377E-10 -2.4762E-09 -2.3287E-09 -2.0281E-08
          69   7         1.2500E-03 -8.9213E-08  3.2080E-09 -3.6540E-09 -1.6396E-09 -1.1301E-08
          69   8         1.2500E-03 -8.8236E-08  4.0139E-09 -3.3329E-09 -2.4480E-09 -2.0453E-08
          70   1         1.2500E-03 -7.8984E-08 -2.3574E-09 -1.8145E-09  1.0492E-09 -4.1737E-08
          70   2         1.2500E-03 -7.6466E-08 -3.4635E-10 -1.7592E-09  8.5179E-11 -5.0519E-08
          70   3         1.2500E-03 -8.3290E-08  2.1183E-09 -2.7129E-09  8.9328E-10 -4.2244E-08
          70   4         1.2500E-03 -8.0204E-08  4.6980E-09 -2.8919E-09 -1.5580E-10 -5.1025E-08
          70   5         1.2500E-03 -7.8895E-08 -2.4798E-09 -8.8610E-09 -3.5964E-09 -4.2351E-08
          70   6         1.2500E-03 -7.6349E-08 -5.2546E-10 -8.8056E-09 -6.2663E-09 -5.1367E-08
          70   7         1.2500E-03 -8.3357E-08  2.0741E-09 -1.1465E-08 -3.7523E-09 -4.2942E-08
          70   8         1.2500E-03 -8.0243E-08  4.5970E-09 -1.1644E-08 -6.5073E-09 -5.1958E-08
          71   1         1.2500E-03 -6.6066E-08 -5.1095E-09 -3.9724E-09 -9.9052E-10 -7.0800E-08
          71   2         1.2500E-03 -6.1551E-08 -1.5626E-09 -4.5440E-09 -2.9653E-09 -7.8698E-08
          71   3         1.2500E-03 -6.8618E-08  2.3647E-10 -5.8606E-09 -1.3188E-09 -7.1768E-08
          71   4         1.2500E-03 -6.3042E-08  4.8437E-09 -6.7864E-09 -3.4469E-09 -7.9666E-08
          71   5         1.2500E-03 -6.6338E-08 -5.1378E-09 -1.6549E-08 -9.1307E-09 -7.2334E-08
          71   6         1.2500E-03 -6.1772E-08 -1.6932E-09 -1.7121E-08 -1.4287E-08 -8.0586E-08
          71   7         1.2500E-03 -6.9126E-08  3.2624E-10 -2.1619E-08 -9.4590E-09 -7.3456E-08
          71   8         1.2500E-03 -6.3499E-08  4.8313E-09 -2.2545E-08 -1.4768E-08 -8.1708E-08
          72   1         1.2500E-03 -4.4421E-08 -9.0320E-09 -7.3214E-09 -4.8945E-09 -9.5298E-08
          72   2         1.2500E-03 -3.7766E-08 -3.8613E-09 -8.4341E-09 -8.1902E-09 -1.0104E-07
          72   3         1.2500E-03 -4.3486E-08 -2.3550E-09 -1.0530E-08 -5.5538E-09 -9.6782E-08
          72   4         1.2499E-03 -3.5188E-08  4.4585E-09 -1.2179E-08 -9.1817E-09 -1.0252E-07
          72   5         1.2500E-03 -4.4944E-08 -9.1006E-09 -2.5802E-08 -1.9184E-08 -9.8194E-08
          72   6         1.2500E-03 -3.8178E-08 -4.1514E-09 -2.6915E-08 -2.7408E-08 -1.0447E-07
          72   7         1.2500E-03 -4.4366E-08 -2.2447E-09 -3.3939E-08 -1.9843E-08 -1.0001E-07
          72   8         1.2499E-03 -3.5957E-08  4.3474E-09 -3.5589E-08 -2.8400E-08 -1.0629E-07
          73   1         1.2499E-03 -1.3833E-08 -1.3833E-08 -1.1110E-08 -1.1110E-08 -1.1043E-07
          73   2         1.2499E-03 -5.3730E-09 -7.3415E-09 -1.2378E-08 -1.5793E-08 -1.1240E-07
          73   3         1.2499E-03 -7.3415E-09 -5.3730E-09 -1.5793E-08 -1.2378E-08 -1.1240E-07
          73   4         1.2499E-03  3.2954E-09  3.2954E-09 -1.7484E-08 -1.7484E-08 -1.1437E-07
          73   5         1.2499E-03 -1.4256E-08 -1.4256E-08 -3.4523E-08 -3.4523E-08 -1.1502E-07
          73   6         1.2499E-03 -5.6547E-09 -8.0459E-09 -3.5790E-08 -4.5735E-08 -1.1741E-07
          73   7         1.2499E-03 -8.0459E-09 -5.6547E-09 -4.5735E-08 -3.5790E-08 -1.1741E-07
          73   8         1.2499E-03  2.7319E-09  2.7319E-09 -4.7426E-08 -4.7426E-08 -1.1980E-07
          74   1         1.2499E-03  2.3123E-08 -1.8743E-08 -1.3735E-08 -1.9494E-08 -1.1080E-07
          74   2         1.2499E-03  3.2237E-08 -1.1784E-08 -1.4400E-08 -2.4922E-08 -1.0747E-07
          74   3         1.2499E-03  3.6999E-08 -8.1922E-09 -1.9299E-08 -2.1505E-08 -1.1295E-07
          74   4         1.2498E-03  4.8521E-08  1.1752E-09 -2.0100E-08 -2.7388E-08 -1.0963E-07
          74   5         1.2499E-03  2.3350E-08 -1.9862E-08 -3.8921E-08 -5.4471E-08 -1.1650E-07
          74   6         1.2499E-03  3.2615E-08 -1.3205E-08 -3.9586E-08 -6.7124E-08 -1.1331E-07
          74   7         1.2499E-03  3.7135E-08 -9.2661E-09 -5.1710E-08 -5.6482E-08 -1.1911E-07
          74   8         1.2498E-03  4.8809E-08 -2.0118E-10 -5.2511E-08 -6.9590E-08 -1.1592E-07
          75   1         1.2498E-03  6.0184E-08 -2.2667E-08 -1.3193E-08 -2.8635E-08 -9.2567E-08
          75   2         1.2498E-03  6.7983E-08 -1.6543E-08 -1.2694E-08 -3.3349E-08 -8.3541E-08
          75   3         1.2498E-03  8.1942E-08 -9.9358E-09 -1.8561E-08 -3.1676E-08 -9.4243E-08
          75   4         1.2498E-03  9.1904E-08 -1.6491E-09 -1.7755E-08 -3.7510E-08 -8.5217E-08
          75   5         1.2498E-03  6.1530E-08 -2.4861E-08 -3.4917E-08 -7.5856E-08 -9.7900E-08
          75   6         1.2498E-03  6.9703E-08 -1.9484E-08 -3.4418E-08 -8.7057E-08 -8.8567E-08
          75   7         1.2498E-03  8.3493E-08 -1.2232E-08 -4.6772E-08 -7.8897E-08 -1.0070E-07
          75   8         1.2498E-03  9.3828E-08 -4.6920E-09 -4.5966E-08 -9.1219E-08 -9.1362E-08
          76   1         1.2498E-03  8.8593E-08 -2.4483E-08 -8.5875E-09 -3.6032E-08 -5.6171E-08
          76   2         1.2498E-03  9.3055E-08 -2.0775E-08 -6.9581E-09 -3.8650E-08 -4.2663E-08
          76   3         1.2498E-03  1.1678E-07 -9.8005E-09 -1.2323E-08 -4.1164E-08 -5.6926E-08
          76   4         1.2498E-03  1.2259E-07 -4.7532E-09 -9.8458E-09 -4.5313E-08 -4.3418E-08
          76   5         1.2498E-03  9.1390E-08 -2.8447E-08 -2.1220E-08 -9.3587E-08 -5.9581E-08
          76   6         1.2498E-03  9.6362E-08 -2.5760E-08 -1.9590E-08 -1.0022E-07 -4.5225E-08
          76   7         1.2498E-03  1.2014E-07 -1.4047E-08 -2.8975E-08 -9.8719E-08 -6.1867E-08
          76   8         1.2498E-03  1.2646E-07 -1.0021E-08 -2.6498E-08 -1.0689E-07 -4.7511E-08
          77   1         1.2498E-03  1.0065E-07 -2.3713E-08 -1.0034E-09 -3.9608E-08 -7.5720E-09
          77   2         1.2498E-03  1.0065E-07 -2.3713E-08  1.0034E-09 -3.9608E-08  7.5720E-09
          77   3         1.2497E-03  1.3176E-07 -7.7455E-09 -1.6420E-09 -4.6831E-08 -7.5720E-09
          77   4         1.2497E-03  1.3176E-07 -7.7455E-09  1.6420E-09 -4.6831E-08  7.5720E-09
          77   5         1.2498E-03  1.0440E-07 -2.9197E-08 -1.0034E-09 -1.0265E-07 -8.2106E-09
          77   6         1.2498E-03  1.0440E-07 -2.9197E-08  1.0034E-09 -1.0265E-07  8.2106E-09
          77   7         1.2497E-03  1.3636E-07 -1.3655E-08 -1.6420E-09 -1.0988E-07 -8.2106E-09
          77   8         1.2497E-03  1.3636E-07 -1.3655E-08  1.6420E-09 -1.0988E-07  8.2106E-09
          78   1         1.2498E-03  9.3055E-08 -2.0775E-08  6.9581E-09 -3.8650E-08  4.2663E-08
          78   2         1.2498E-03  8.8593E-08 -2.4483E-08  8.5875E-09 -3.6032E-08  5.6171E-08
          78   3         1.2498E-03  1.2259E-07 -4.7532E-09  9.8458E-09 -4.5313E-08  4.3418E-08
          78   4         1.2498E-03  1.1678E-07 -9.8005E-09  1.2323E-08 -4.1164E-08  5.6926E-08
          78   5         1.2498E-03  9.6362E-08 -2.5760E-08  1.9590E-08 -1.0022E-07  4.5225E-08
          78   6         1.2498E-03  9.1390E-08 -2.8447E-08  2.1220E-08 -9.3587E-08  5.9581E-08
          78   7         1.2498E-03  1.2646E-07 -1.0021E-08  2.6498E-08 -1.0689E-07  4.7511E-08
          78   8         1.2498E-03  1.2014E-07 -1.4047E-08  2.8975E-08 -9.8719E-08  6.1867E-08
          79   1         1.2498E-03  6.7983E-08 -1.6543E-08  1.2694E-08 -3.3349E-08  8.3541E-08
          79   2         1.2498E-03  6.0184E-08 -2.2667E-08  1.3193E-08 -2.8635E-08  9.2567E-08
          79   3         1.2498E-03  9.1904E-08 -1.6491E-09  1.7755E-08 -3.7510E-08  8.5217E-08
          79   4         1.2498E-03  8.1942E-08 -9.9358E-09  1.8561E-08 -3.1676E-08  9.4243E-08
          79   5         1.2498E-03  6.9703E-08 -1.9484E-08  3.4418E-08 -8.7057E-08  8.8567E-08
          79   6         1.2498E-03  6.1530E-08 -2.4861E-08  3.4917E-08 -7.5856E-08  9.7900E-08
          79   7         1.2498E-03  9.3828E-08 -4.6920E-09  4.5966E-08 -9.1219E-08  9.1362E-08
          79   8         1.2498E-03  8.3493E-08 -1.2232E-08  4.6772E-08 -7.8897E-08  1.0070E-07
          80   1         1.2499E-03  3.2237E-08 -1.1784E-08  1.4400E-08 -2.4922E-08  1.0747E-07
          80   2         1.2499E-03  2.3123E-08 -1.8743E-08  1.3735E-08 -1.9494E-08  1.1080E-07
          80   3         1.2498E-03  4.8521E-08  1.1752E-09  2.0100E-08 -2.7388E-08  1.0963E-07
          80   4         1.2499E-03  3.6999E-08 -8.1922E-09  1.9299E-08 -2.1505E-08  1.1295E-07
          80   5         1.2499E-03  3.2615E-08 -1.3205E-08  3.9586E-08 -6.7124E-08  1.1331E-07
          80   6         1.2499E-03  2.3350E-08 -1.9862E-08  3.8921E-08 -5.4471E-08  1.1650E-07
          80   7         1.2498E-03  4.8809E-08 -2.0118E-10  5.2511E-08 -6.9590E-08  1.1592E-07
          80   8         1.2499E-03  3.7135E-08 -9.2661E-09  5.1710E-08 -5.6482E-08  1.1911E-07
          81   1         1.2499E-03 -5.3730E-09 -7.3415E-09  1.2378E-08 -1.5793E-08  1.1240E-07
          81   2         1.2499E-03 -1.3833E-08 -1.3833E-08  1.1110E-08 -1.1110E-08  1.1043E-07
          81   3         1.2499E-03  3.2954E-09  3.2954E-09  1.7484E-08 -1.7484E-08  1.1437E-07
          81   4         1.2499E-03 -7.3415E-09 -5.3730E-09  1.5793E-08 -1.2378E-08  1.1240E-07
          81   5         1.2499E-03 -5.6547E-09 -8.0459E-09  3.5790E-08 -4.5735E-08  1.1741E-07
          81   6         1.2499E-03 -1.4256E-08 -1.4256E-08  3.4523E-08 -3.4523E-08  1.1502E-07
          81   7         1.2499E-03  2.7319E-09  2.7319E-09  4.7426E-08 -4.7426E-08  1.1980E-07
          81   8         1.2499E-03 -8.0459E-09 -5.6547E-09  4.5735E-08 -3.5790E-08  1.1741E-07
          82   1         1.2500E-03 -3.7766E-08 -3.8613E-09  8.4341E-09 -8.1902E-09  1.0104E-07
          82   2         1.2500E-03 -4.4421E-08 -9.0320E-09  7.3214E-09 -4.8945E-09  9.5298E-08
          82   3         1.2499E-03 -3.5188E-08  4.4585E-09  1.2179E-08 -9.1817E-09  1.0252E-07
          82   4         1.2500E-03 -4.3486E-08 -2.3550E-09  1.0530E-08 -5.5538E-09  9.6782E-08
          82   5         1.2500E-03 -3.8178E-08 -4.1514E-09  2.6915E-08 -2.7408E-08  1.0447E-07
          82   6         1.2500E-03 -4.4944E-08 -9.1006E-09  2.5802E-08 -1.9184E-08  9.8194E-08
          82   7         1.2499E-03 -3.5957E-08  4.3474E-09  3.5589E-08 -2.8400E-08  1.0629E-07
          82   8         1.2500E-03 -4.4366E-08 -2.2447E-09  3.3939E-08 -1.9843E-08  1.0001E-07
          83   1         1.2500E-03 -6.1551E-08 -1.5626E-09  4.5440E-09 -2.9653E-09  7.8698E-08
          83   2         1.2500E-03 -6.6066E-08 -5.1095E-09  3.9724E-09 -9.9052E-10  7.0800E-08
          83   3         1.2500E-03 -6.3042E-08  4.8437E-09  6.7864E-09 -3.4469E-09  7.9666E-08
          83   4         1.2500E-03 -6.8618E-08  2.3647E-10  5.8606E-09 -1.3188E-09  7.1768E-08
          83   5         1.2500E-03 -6.1772E-08 -1.6932E-09  1.7121E-08 -1.4287E-08  8.0586E-08
          83   6         1.2500E-03 -6.6338E-08 -5.1378E-09  1.6549E-08 -9.1307E-09  7.2334E-08
          83   7         1.2500E-03 -6.3499E-08  4.8313E-09  2.2545E-08 -1.4768E-08  8.1708E-08
          83   8         1.2500E-03 -6.9126E-08  3.2624E-10  2.1619E-08 -9.4590E-09  7.3456E-08
          84   1         1.2500E-03 -7.6466E-08 -3.4635E-10  1.7592E-09  8.5179E-11  5.0519E-08
          84   2         1.2500E-03 -7.8984E-08 -2.3574E-09  1.8145E-09  1.0492E-09  4.1737E-08
          84   3         1.2500E-03 -8.0204E-08  4.6980E-09  2.8919E-09 -1.5580E-10  5.1025E-08
          84   4         1.2500E-03 -8.3290E-08  2.1183E-09  2.7129E-09  8.9328E-10  4.2244E-08
          84   5         1.2500E-03 -7.6349E-08 -5.2546E-10  8.8056E-09 -6.2663E-09  5.1367E-08
          84   6         1.2500E-03 -7.8895E-08 -2.4798E-09  8.8610E-09 -3.5964E-09  4.2351E-08
          84   7         1.2500E-03 -8.0243E-08  4.5970E-09  1.1644E-08 -6.5073E-09  5.1958E-08
          84   8         1.2500E-03 -8.3357E-08  2.0741E-09  1.1465E-08 -3.7523E-09  4.2942E-08
          85   1         1.2500E-03 -8.3738E-08 -9.0951E-11  2.3372E-10  1.5027E-09  2.0047E-08
          85   2         1.2500E-03 -8.4538E-08 -7.3387E-10  6.6349E-10  1.7777E-09  1.1005E-08
          85   3         1.2500E-03 -8.8490E-08  4.2005E-09  5.7195E-10  1.3834E-09  2.0204E-08
          85   4         1.2500E-03 -8.9462E-08  3.3847E-09  8.9305E-10  1.6733E-09  1.1161E-08
          85   5         1.2500E-03 -8.3412E-08 -3.1377E-10  2.4762E-09 -2.3287E-09  2.0281E-08
          85   6         1.2500E-03 -8.4217E-08 -9.4677E-10  2.9059E-09 -1.5352E-09  1.1130E-08
          85   7         1.2500E-03 -8.8236E-08  4.0139E-09  3.3329E-09 -2.4480E-09  2.0453E-08
          85   8         1.2500E-03 -8.9213E-08  3.2080E-09  3.6540E-09 -1.6396E-09  1.1301E-08
          86   1         1.2500E-03 -1.0011E-07  1.7294E-08 -1.0703E-09  1.5247E-09 -1.0885E-08
          86   2         1.2500E-03 -9.9242E-08  1.8708E-08 -8.4195E-10  1.2109E-09 -1.9559E-08
          86   3         1.2500E-03 -1.0479E-07  2.1287E-08 -1.3251E-09  1.2148E-09 -1.0340E-08
          86   4         1.2500E-03 -1.0374E-07  2.2885E-08 -1.2414E-09  8.8359E-10 -1.9015E-08
          86   5         1.2500E-03 -9.9856E-08  1.7012E-08 -4.2229E-09 -1.7798E-09 -1.1050E-08
          86   6         1.2500E-03 -9.8981E-08  1.8414E-08 -3.9945E-09 -2.6450E-09 -1.9868E-08
          86   7         1.2500E-03 -1.0463E-07  2.1053E-08 -5.0291E-09 -2.0897E-09 -1.0523E-08
          86   8         1.2500E-03 -1.0357E-07  2.2639E-08 -4.9454E-09 -2.9723E-09 -1.9342E-08
          87   1         1.2500E-03 -9.4325E-08  1.7207E-08 -3.4118E-09  6.8467E-10 -4.1119E-08
          87   2         1.2500E-03 -9.1502E-08  2.1601E-08 -3.7745E-09 -4.3928E-10 -4.9637E-08
          87   3         1.2500E-03 -9.8429E-08  2.1620E-08 -4.4227E-09  3.4530E-10 -3.9549E-08
          87   4         1.2500E-03 -9.5003E-08  2.6617E-08 -5.0528E-09 -7.9409E-10 -4.8067E-08
          87   5         1.2500E-03 -9.4453E-08  1.7102E-08 -1.3451E-08 -4.0355E-09 -4.1929E-08
          87   6         1.2500E-03 -9.1625E-08  2.1485E-08 -1.3814E-08 -6.9695E-09 -5.0714E-08
          87   7         1.2500E-03 -9.8736E-08  2.1604E-08 -1.6272E-08 -4.3749E-09 -4.0374E-08
          87   8         1.2500E-03 -9.5305E-08  2.6590E-08 -1.6902E-08 -7.3243E-09 -4.9159E-08
          88   1         1.2500E-03 -8.0235E-08  1.8242E-08 -7.3324E-09 -1.6920E-09 -7.0084E-08
          88   2         1.2500E-03 -7.4995E-08  2.5940E-08 -8.5516E-09 -3.9904E-09 -7.7864E-08
          88   3         1.2500E-03 -8.2605E-08  2.3651E-08 -9.4650E-09 -2.0757E-09 -6.7625E-08
          88   4         1.2500E-03 -7.6223E-08  3.2493E-08 -1.1132E-08 -4.4378E-09 -7.5405E-08
          88   5         1.2500E-03 -8.0919E-08  1.8392E-08 -2.5510E-08 -1.0140E-08 -7.2004E-08
          88   6         1.2500E-03 -7.5659E-08  2.6048E-08 -2.6729E-08 -1.5867E-08 -8.0232E-08
          88   7         1.2500E-03 -8.3589E-08  2.3951E-08 -3.1072E-08 -1.0524E-08 -6.9609E-08
          88   8         1.2500E-03 -7.7185E-08  3.2750E-08 -3.2738E-08 -1.6315E-08 -7.7837E-08
          89   1         1.2499E-03 -5.5403E-08  2.0188E-08 -1.3064E-08 -6.2827E-09 -9.4929E-08
          89   2         1.2499E-03 -4.7358E-08  3.1301E-08 -1.5149E-08 -1.0247E-08 -1.0074E-07
          89   3         1.2499E-03 -5.4237E-08  2.7165E-08 -1.6780E-08 -6.7840E-09 -9.1861E-08
          89   4         1.2499E-03 -4.4382E-08  4.0089E-08 -1.9516E-08 -1.0832E-08 -9.7673E-08
          89   5         1.2499E-03 -5.6626E-08  2.0549E-08 -4.0266E-08 -2.1403E-08 -9.8632E-08
          89   6         1.2499E-03 -4.8553E-08  3.1606E-08 -4.2351E-08 -3.0800E-08 -1.0510E-07
          89   7         1.2499E-03 -5.5895E-08  2.7743E-08 -4.9414E-08 -2.1905E-08 -9.5647E-08
          89   8         1.2499E-03 -4.6012E-08  4.0611E-08 -5.2151E-08 -3.1385E-08 -1.0211E-07
          90   1         1.2499E-03 -1.8743E-08  2.3123E-08 -1.9494E-08 -1.3735E-08 -1.1080E-07
          90   2         1.2499E-03 -8.1922E-09  3.6999E-08 -2.1505E-08 -1.9299E-08 -1.1295E-07
          90   3         1.2499E-03 -1.1784E-08  3.2237E-08 -2.4922E-08 -1.4400E-08 -1.0747E-07
          90   4         1.2498E-03  1.1752E-09  4.8521E-08 -2.7388E-08 -2.0100E-08 -1.0963E-07
          90   5         1.2499E-03 -1.9862E-08  2.3350E-08 -5.4471E-08 -3.8921E-08 -1.1650E-07
          90   6         1.2499E-03 -9.2661E-09  3.7135E-08 -5.6482E-08 -5.1710E-08 -1.1911E-07
          90   7         1.2499E-03 -1.3205E-08  3.2615E-08 -6.7124E-08 -3.9586E-08 -1.1331E-07
          90   8         1.2498E-03 -2.0118E-10  4.8809E-08 -6.9590E-08 -5.2511E-08 -1.1592E-07
          91   1         1.2498E-03  2.7043E-08  2.7043E-08 -2.3716E-08 -2.3716E-08 -1.1182E-07
          91   2         1.2498E-03  3.8685E-08  4.1804E-08 -2.4677E-08 -3.0220E-08 -1.0870E-07
          91   3         1.2498E-03  4.1804E-08  3.8685E-08 -3.0220E-08 -2.4677E-08 -1.0870E-07
[...]
        4888   6         1.2500E-03  6.3507E-08 -1.1911E-07  1.7289E-10 -7.9613E-09 -2.9858E-09
        4888   7         1.2500E-03  5.4038E-08 -1.2261E-07 -2.2335E-10 -7.2822E-09  2.9858E-09
        4888   8         1.2500E-03  5.4038E-08 -1.2261E-07  2.2335E-10 -7.2822E-09 -2.9858E-09
        4889   1         1.2500E-03  5.9530E-08 -1.1692E-07 -3.7604E-09 -2.3978E-08 -1.9273E-08
        4889   2         1.2500E-03  5.7251E-08 -1.1543E-07 -3.4309E-09 -2.2756E-08 -2.4745E-08
        4889   3         1.2500E-03  5.0491E-08 -1.2049E-07 -2.5376E-09 -2.3259E-08 -1.5497E-08
        4889   4         1.2500E-03  4.8478E-08 -1.1873E-07 -2.0795E-09 -2.1928E-08 -2.0969E-08
        4889   5         1.2500E-03  5.9510E-08 -1.1655E-07 -7.0010E-10 -7.8053E-09 -1.9004E-08
        4889   6         1.2500E-03  5.7195E-08 -1.1498E-07 -3.7065E-10 -7.3792E-09 -2.4347E-08
        4889   7         1.2500E-03  5.0557E-08 -1.2016E-07 -2.7399E-10 -7.0863E-09 -1.5119E-08
        4889   8         1.2500E-03  4.8507E-08 -1.1833E-07  1.8411E-10 -6.5513E-09 -2.0462E-08
        4890   1         1.2500E-03  4.6246E-08 -1.0835E-07 -6.4069E-09 -2.1404E-08 -3.7839E-08
        4890   2         1.2500E-03  4.2123E-08 -1.0552E-07 -6.0627E-09 -1.8936E-08 -4.1638E-08
        4890   3         1.2500E-03  3.8867E-08 -1.1193E-07 -4.0309E-09 -2.0566E-08 -3.0889E-08
        4890   4         1.2500E-03  3.5239E-08 -1.0860E-07 -3.5872E-09 -1.8178E-08 -3.4688E-08
        4890   5         1.2500E-03  4.6196E-08 -1.0790E-07 -9.8756E-10 -6.8635E-09 -3.7054E-08
        4890   6         1.2500E-03  4.2100E-08 -1.0513E-07 -6.4335E-10 -5.8805E-09 -4.0752E-08
        4890   7         1.2500E-03  3.8883E-08 -1.1152E-07 -9.7153E-11 -6.0252E-09 -3.0184E-08
        4890   8         1.2500E-03  3.5282E-08 -1.0825E-07  3.4654E-10 -5.1230E-09 -3.3883E-08
        4891   1         1.2500E-03  2.6590E-08 -9.5305E-08 -7.3243E-09 -1.6902E-08 -4.9159E-08
        4891   2         1.2500E-03  2.1485E-08 -9.1625E-08 -6.9695E-09 -1.3814E-08 -5.0714E-08
        4891   3         1.2500E-03  2.1604E-08 -9.8736E-08 -4.3749E-09 -1.6272E-08 -4.0374E-08
        4891   4         1.2500E-03  1.7102E-08 -9.4453E-08 -4.0355E-09 -1.3451E-08 -4.1929E-08
        4891   5         1.2500E-03  2.6617E-08 -9.5003E-08 -7.9409E-10 -5.0528E-09 -4.8067E-08
        4891   6         1.2500E-03  2.1601E-08 -9.1502E-08 -4.3928E-10 -3.7745E-09 -4.9637E-08
        4891   7         1.2500E-03  2.1620E-08 -9.8429E-08  3.4530E-10 -4.4227E-09 -3.9549E-08
        4891   8         1.2500E-03  1.7207E-08 -9.4325E-08  6.8467E-10 -3.4118E-09 -4.1119E-08
        4892   1         1.2500E-03  4.5970E-09 -8.0243E-08 -6.5073E-09 -1.1644E-08 -5.1958E-08
        4892   2         1.2500E-03 -5.2546E-10 -7.6349E-08 -6.2663E-09 -8.8056E-09 -5.1367E-08
        4892   3         1.2500E-03  2.0741E-09 -8.3357E-08 -3.7523E-09 -1.1465E-08 -4.2942E-08
        4892   4         1.2500E-03 -2.4798E-09 -7.8895E-08 -3.5964E-09 -8.8610E-09 -4.2351E-08
        4892   5         1.2500E-03  4.6980E-09 -8.0204E-08 -1.5580E-10 -2.8919E-09 -5.1025E-08
        4892   6         1.2500E-03 -3.4635E-10 -7.6466E-08  8.5179E-11 -1.7592E-09 -5.0519E-08
        4892   7         1.2500E-03  2.1183E-09 -8.3290E-08  8.9328E-10 -2.7129E-09 -4.2244E-08
        4892   8         1.2500E-03 -2.3574E-09 -7.8984E-08  1.0492E-09 -1.8145E-09 -4.1737E-08
        4893   1         1.2500E-03 -1.6013E-08 -6.5624E-08 -4.7233E-09 -6.9731E-09 -4.7299E-08
        4893   2         1.2500E-03 -2.0433E-08 -6.2071E-08 -4.7240E-09 -4.8053E-09 -4.5074E-08
        4893   3         1.2500E-03 -1.6505E-08 -6.8340E-08 -2.5864E-09 -7.1641E-09 -3.9326E-08
        4893   4         1.2500E-03 -2.0471E-08 -6.4333E-08 -2.6677E-09 -5.1324E-09 -3.7102E-08
        4893   5         1.2500E-03 -1.5950E-08 -6.5751E-08  5.6300E-10 -1.0489E-09 -4.6710E-08
        4893   6         1.2500E-03 -2.0324E-08 -6.2288E-08  5.6228E-10 -2.4115E-10 -4.4566E-08
        4893   7         1.2500E-03 -1.6495E-08 -6.8440E-08  1.3398E-09 -1.2399E-09 -3.8873E-08
        4893   8         1.2500E-03 -2.0416E-08 -6.4524E-08  1.2585E-09 -5.6826E-10 -3.6729E-08
        4894   1         1.2500E-03 -3.2750E-08 -5.3288E-08 -2.8003E-09 -3.4834E-09 -3.7327E-08
        4894   2         1.2500E-03 -3.6055E-08 -5.0482E-08 -3.0752E-09 -2.0399E-09 -3.4068E-08
        4894   3         1.2500E-03 -3.1817E-08 -5.5615E-08 -1.3648E-09 -3.8871E-09 -3.1217E-08
        4894   4         1.2500E-03 -3.4808E-08 -5.2495E-08 -1.6983E-09 -2.5166E-09 -2.7957E-08
        4894   5         1.2500E-03 -3.2799E-08 -5.3465E-08  1.0039E-09  2.3770E-10 -3.7025E-08
        4894   6         1.2500E-03 -3.6079E-08 -5.0708E-08  7.2900E-10  7.3821E-10 -3.3823E-08
        4894   7         1.2500E-03 -3.1905E-08 -5.5773E-08  1.4964E-09 -1.6594E-10 -3.0988E-08
        4894   8         1.2500E-03 -3.4871E-08 -5.2702E-08  1.1629E-09  2.6159E-10 -2.7786E-08
        4895   1         1.2500E-03 -4.4379E-08 -4.4379E-08 -1.2227E-09 -1.2227E-09 -2.4193E-08
        4895   2         1.2500E-03 -4.6388E-08 -4.2597E-08 -1.7370E-09 -4.3359E-10 -2.0402E-08
        4895   3         1.2500E-03 -4.2597E-08 -4.6388E-08 -4.3359E-10 -1.7370E-09 -2.0402E-08
        4895   4         1.2500E-03 -4.4427E-08 -4.4427E-08 -9.7777E-10 -9.7777E-10 -1.6611E-08
        4895   5         1.2500E-03 -4.4550E-08 -4.4550E-08  1.0139E-09  1.0139E-09 -2.4080E-08
        4895   6         1.2500E-03 -4.6549E-08 -4.2788E-08  4.9962E-10  1.2666E-09 -2.0319E-08
        4895   7         1.2500E-03 -4.2788E-08 -4.6549E-08  1.2666E-09  4.9962E-10 -2.0319E-08
        4895   8         1.2500E-03 -4.4609E-08 -4.4609E-08  7.2242E-10  7.2242E-10 -1.6558E-08
        4896   1         1.2500E-03 -5.0532E-08 -3.9496E-08 -1.0802E-10 -5.4926E-11 -9.5512E-09
        4896   2         1.2500E-03 -5.1202E-08 -3.8887E-08 -7.6046E-10  1.9044E-10 -5.5573E-09
        4896   3         1.2500E-03 -4.8350E-08 -4.1308E-08  1.3878E-10 -6.1230E-10 -8.2720E-09
        4896   4         1.2500E-03 -4.8963E-08 -4.0641E-08 -5.2260E-10 -3.7309E-10 -4.2781E-09
        4896   5         1.2500E-03 -5.0781E-08 -3.9650E-08  6.2349E-10  1.3860E-09 -9.5282E-09
        4896   6         1.2500E-03 -5.1449E-08 -3.9045E-08 -2.8944E-11  1.4597E-09 -5.5432E-09
        4896   7         1.2500E-03 -4.8605E-08 -4.1459E-08  6.9857E-10  8.2867E-10 -8.2552E-09
        4896   8         1.2500E-03 -4.9216E-08 -4.0797E-08  3.7186E-11  8.9616E-10 -4.2702E-09
        4897   1         1.2500E-03 -4.5830E-08 -4.4475E-08  4.0746E-10  3.3578E-10  2.3480E-09
        4897   2         1.2500E-03 -4.5220E-08 -4.5220E-08 -2.5770E-10  2.5770E-10  3.7036E-09
        4897   3         1.2500E-03 -4.5067E-08 -4.5067E-08  3.3075E-10 -3.3075E-10  9.9236E-10
        4897   4         1.2500E-03 -4.4475E-08 -4.5830E-08 -3.3578E-10 -4.0746E-10  2.3480E-09
        4897   5         1.2500E-03 -4.6052E-08 -4.4697E-08 -6.9050E-11  7.5651E-10  2.3456E-09
        4897   6         1.2500E-03 -4.5441E-08 -4.5441E-08 -7.3421E-10  7.3421E-10  3.6998E-09
        4897   7         1.2500E-03 -4.5289E-08 -4.5289E-08 -8.9976E-11  8.9976E-11  9.9136E-10
        4897   8         1.2500E-03 -4.4697E-08 -4.6052E-08 -7.5651E-10  6.9050E-11  2.3456E-09
        4898   1         1.2500E-03 -4.1308E-08 -4.8350E-08  6.1230E-10  1.3878E-10  8.2720E-09
        4898   2         1.2500E-03 -3.9496E-08 -5.0532E-08  5.4926E-11 -1.0802E-10  9.5512E-09
        4898   3         1.2500E-03 -4.0641E-08 -4.8963E-08  3.7309E-10 -5.2260E-10  4.2781E-09
        4898   4         1.2500E-03 -3.8887E-08 -5.1202E-08 -1.9044E-10 -7.6046E-10  5.5573E-09
        4898   5         1.2500E-03 -4.1459E-08 -4.8605E-08 -8.2867E-10  6.9857E-10  8.2552E-09
        4898   6         1.2500E-03 -3.9650E-08 -5.0781E-08 -1.3860E-09  6.2349E-10  9.5282E-09
        4898   7         1.2500E-03 -4.0797E-08 -4.9216E-08 -8.9616E-10  3.7186E-11  4.2702E-09
        4898   8         1.2500E-03 -3.9045E-08 -5.1449E-08 -1.4597E-09 -2.8944E-11  5.5432E-09
        4899   1         1.2500E-03 -3.1783E-08 -5.6623E-08  1.0378E-09 -3.6397E-10  1.3673E-08
        4899   2         1.2500E-03 -2.8855E-08 -6.0072E-08  6.7665E-10 -8.1644E-10  1.4763E-08
        4899   3         1.2500E-03 -3.1357E-08 -5.7288E-08  6.1004E-10 -1.0014E-09  7.2964E-09
        4899   4         1.2500E-03 -2.8530E-08 -6.0836E-08  2.3223E-10 -1.4217E-09  8.3864E-09
        4899   5         1.2500E-03 -3.1811E-08 -5.6928E-08 -1.3688E-09  5.3987E-10  1.3609E-08
        4899   6         1.2500E-03 -2.8894E-08 -6.0355E-08 -1.7299E-09  3.8649E-10  1.4683E-08
        4899   7         1.2500E-03 -3.1397E-08 -5.7587E-08 -1.4974E-09 -9.7526E-11  7.2655E-09
        4899   8         1.2500E-03 -2.8580E-08 -6.1114E-08 -1.8752E-09 -2.1877E-10  8.3388E-09
        4900   1         1.2500E-03 -1.7735E-08 -6.8694E-08  1.6831E-09 -1.2315E-09  1.7949E-08
        4900   2         1.2500E-03 -1.3904E-08 -7.3084E-08  1.5643E-09 -1.9131E-09  1.8679E-08
        4900   3         1.2500E-03 -1.7737E-08 -6.9427E-08  1.0494E-09 -1.7988E-09  9.7279E-09
        4900   4         1.2500E-03 -1.4049E-08 -7.3959E-08  9.0869E-10 -2.4088E-09  1.0459E-08
        4900   5         1.2500E-03 -1.7625E-08 -6.9033E-08 -1.5888E-09  2.3731E-10  1.7801E-08
        4900   6         1.2500E-03 -1.3818E-08 -7.3375E-08 -1.7077E-09 -1.6883E-11  1.8510E-08
        4900   7         1.2500E-03 -1.7642E-08 -6.9758E-08 -1.7952E-09 -3.2999E-10  9.6518E-09
        4900   8         1.2500E-03 -1.3978E-08 -7.4243E-08 -1.9359E-09 -5.1262E-10  1.0361E-08
        4901   1         1.2500E-03 -3.1377E-10 -8.3412E-08  2.3287E-09 -2.4762E-09  2.0281E-08
        4901   2         1.2500E-03  4.0139E-09 -8.8236E-08  2.4480E-09 -3.3329E-09  2.0453E-08
        4901   3         1.2500E-03 -9.4677E-10 -8.4217E-08  1.5352E-09 -2.9059E-09  1.1130E-08
        4901   4         1.2500E-03  3.2080E-09 -8.9213E-08  1.6396E-09 -3.6540E-09  1.1301E-08
        4901   5         1.2500E-03 -9.0951E-11 -8.3738E-08 -1.5027E-09 -2.3372E-10  2.0047E-08
        4901   6         1.2500E-03  4.2005E-09 -8.8490E-08 -1.3834E-09 -5.7195E-10  2.0204E-08
        4901   7         1.2500E-03 -7.3387E-10 -8.4538E-08 -1.7777E-09 -6.6349E-10  1.1005E-08
        4901   8         1.2500E-03  3.3847E-09 -8.9462E-08 -1.6733E-09 -8.9305E-10  1.1161E-08
        4902   1         1.2500E-03  1.8414E-08 -9.8981E-08  2.6450E-09 -3.9945E-09  1.9868E-08
        4902   2         1.2500E-03  2.2639E-08 -1.0357E-07  2.9723E-09 -4.9454E-09  1.9342E-08
        4902   3         1.2500E-03  1.7012E-08 -9.9856E-08  1.7798E-09 -4.2229E-09  1.1050E-08
        4902   4         1.2500E-03  2.1053E-08 -1.0463E-07  2.0897E-09 -5.0291E-09  1.0523E-08
        4902   5         1.2500E-03  1.8708E-08 -9.9242E-08 -1.2109E-09 -8.4195E-10  1.9559E-08
        4902   6         1.2500E-03  2.2885E-08 -1.0374E-07 -8.8359E-10 -1.2414E-09  1.9015E-08
        4902   7         1.2500E-03  1.7294E-08 -1.0011E-07 -1.5247E-09 -1.0703E-09  1.0885E-08
        4902   8         1.2500E-03  2.1287E-08 -1.0479E-07 -1.2148E-09 -1.3251E-09  1.0340E-08
        4903   1         1.2500E-03  3.5586E-08 -1.1310E-07  2.3685E-09 -5.6492E-09  1.6284E-08
        4903   2         1.2500E-03  3.9004E-08 -1.1673E-07  2.8429E-09 -6.6212E-09  1.5041E-08
        4903   3         1.2500E-03  3.3392E-08 -1.1405E-07  1.5144E-09 -5.6104E-09  9.2293E-09
        4903   4         1.2500E-03  3.6636E-08 -1.1786E-07  1.9730E-09 -6.3925E-09  7.9866E-09
        4903   5         1.2500E-03  3.5889E-08 -1.1323E-07 -8.3057E-10 -1.5524E-09  1.5883E-08
        4903   6         1.2500E-03  3.9244E-08 -1.1674E-07 -3.5622E-10 -2.0028E-09  1.4624E-08
        4903   7         1.2500E-03  3.3685E-08 -1.1418E-07 -1.1631E-09 -1.5137E-09  9.0183E-09
        4903   8         1.2500E-03  3.6865E-08 -1.1786E-07 -7.0445E-10 -1.7741E-09  7.7598E-09
        4904   1         1.2500E-03  4.8081E-08 -1.2335E-07  1.3557E-09 -7.2343E-09  9.6855E-09
        4904   2         1.2500E-03  5.0014E-08 -1.2537E-07  1.8778E-09 -7.9375E-09  7.8593E-09
        4904   3         1.2500E-03  4.5218E-08 -1.2438E-07  7.2984E-10 -6.8763E-09  5.7292E-09
        4904   4         1.2500E-03  4.7034E-08 -1.2652E-07  1.2982E-09 -7.4159E-09  3.9030E-09
        4904   5         1.2500E-03  4.8310E-08 -1.2328E-07 -4.8770E-10 -2.2965E-09  9.3160E-09
        4904   6         1.2500E-03  5.0189E-08 -1.2520E-07  3.4419E-11 -2.6485E-09  7.5360E-09
        4904   7         1.2500E-03  4.5477E-08 -1.2434E-07 -7.6237E-10 -1.9384E-09  5.5233E-09
        4904   8         1.2500E-03  4.7239E-08 -1.2637E-07 -1.9398E-10 -2.1269E-09  3.7433E-09
        4905   1         1.2500E-03  5.3292E-08 -1.2775E-07 -2.5935E-10 -8.1949E-09  1.0314E-09
        4905   2         1.2500E-03  5.3292E-08 -1.2775E-07  2.5935E-10 -8.1949E-09 -1.0314E-09
        4905   3         1.2500E-03  5.0111E-08 -1.2886E-07 -3.0722E-10 -7.6134E-09  1.0314E-09
        4905   4         1.2500E-03  5.0111E-08 -1.2886E-07  3.0722E-10 -7.6134E-09 -1.0314E-09
        4905   5         1.2500E-03  5.3444E-08 -1.2753E-07 -2.5935E-10 -2.7773E-09  9.8356E-10
        4905   6         1.2500E-03  5.3444E-08 -1.2753E-07  2.5935E-10 -2.7773E-09 -9.8356E-10
        4905   7         1.2500E-03  5.0327E-08 -1.2868E-07 -3.0722E-10 -2.1958E-09  9.8356E-10
        4905   8         1.2500E-03  5.0327E-08 -1.2868E-07  3.0722E-10 -2.1958E-09 -9.8356E-10
        4906   1         1.2500E-03  5.0014E-08 -1.2537E-07 -1.8778E-09 -7.9375E-09 -7.8593E-09
        4906   2         1.2500E-03  4.8081E-08 -1.2335E-07 -1.3557E-09 -7.2343E-09 -9.6855E-09
        4906   3         1.2500E-03  4.7034E-08 -1.2652E-07 -1.2982E-09 -7.4159E-09 -3.9030E-09
        4906   4         1.2500E-03  4.5218E-08 -1.2438E-07 -7.2984E-10 -6.8763E-09 -5.7292E-09
        4906   5         1.2500E-03  5.0189E-08 -1.2520E-07 -3.4419E-11 -2.6485E-09 -7.5360E-09
        4906   6         1.2500E-03  4.8310E-08 -1.2328E-07  4.8770E-10 -2.2965E-09 -9.3160E-09
        4906   7         1.2500E-03  4.7239E-08 -1.2637E-07  1.9398E-10 -2.1269E-09 -3.7433E-09
        4906   8         1.2500E-03  4.5477E-08 -1.2434E-07  7.6237E-10 -1.9384E-09 -5.5233E-09
        4907   1         1.2500E-03  3.9004E-08 -1.1673E-07 -2.8429E-09 -6.6212E-09 -1.5041E-08
        4907   2         1.2500E-03  3.5586E-08 -1.1310E-07 -2.3685E-09 -5.6492E-09 -1.6284E-08
        4907   3         1.2500E-03  3.6636E-08 -1.1786E-07 -1.9730E-09 -6.3925E-09 -7.9866E-09
        4907   4         1.2500E-03  3.3392E-08 -1.1405E-07 -1.5144E-09 -5.6104E-09 -9.2293E-09
        4907   5         1.2500E-03  3.9244E-08 -1.1674E-07  3.5622E-10 -2.0028E-09 -1.4624E-08
        4907   6         1.2500E-03  3.5889E-08 -1.1323E-07  8.3057E-10 -1.5524E-09 -1.5883E-08
        4907   7         1.2500E-03  3.6865E-08 -1.1786E-07  7.0445E-10 -1.7741E-09 -7.7598E-09
        4907   8         1.2500E-03  3.3685E-08 -1.1418E-07  1.1631E-09 -1.5137E-09 -9.0183E-09
        4908   1         1.2500E-03  2.2639E-08 -1.0357E-07 -2.9723E-09 -4.9454E-09 -1.9342E-08
        4908   2         1.2500E-03  1.8414E-08 -9.8981E-08 -2.6450E-09 -3.9945E-09 -1.9868E-08
        4908   3         1.2500E-03  2.1053E-08 -1.0463E-07 -2.0897E-09 -5.0291E-09 -1.0523E-08
        4908   4         1.2500E-03  1.7012E-08 -9.9856E-08 -1.7798E-09 -4.2229E-09 -1.1050E-08
        4908   5         1.2500E-03  2.2885E-08 -1.0374E-07  8.8359E-10 -1.2414E-09 -1.9015E-08
        4908   6         1.2500E-03  1.8708E-08 -9.9242E-08  1.2109E-09 -8.4195E-10 -1.9559E-08
        4908   7         1.2500E-03  2.1287E-08 -1.0479E-07  1.2148E-09 -1.3251E-09 -1.0340E-08
        4908   8         1.2500E-03  1.7294E-08 -1.0011E-07  1.5247E-09 -1.0703E-09 -1.0885E-08
        4909   1         1.2500E-03  4.0139E-09 -8.8236E-08 -2.4480E-09 -3.3329E-09 -2.0453E-08
        4909   2         1.2500E-03 -3.1377E-10 -8.3412E-08 -2.3287E-09 -2.4762E-09 -2.0281E-08
        4909   3         1.2500E-03  3.2080E-09 -8.9213E-08 -1.6396E-09 -3.6540E-09 -1.1301E-08
        4909   4         1.2500E-03 -9.4677E-10 -8.4217E-08 -1.5352E-09 -2.9059E-09 -1.1130E-08
        4909   5         1.2500E-03  4.2005E-09 -8.8490E-08  1.3834E-09 -5.7195E-10 -2.0204E-08
        4909   6         1.2500E-03 -9.0951E-11 -8.3738E-08  1.5027E-09 -2.3372E-10 -2.0047E-08
        4909   7         1.2500E-03  3.3847E-09 -8.9462E-08  1.6733E-09 -8.9305E-10 -1.1161E-08
        4909   8         1.2500E-03 -7.3387E-10 -8.4538E-08  1.7777E-09 -6.6349E-10 -1.1005E-08
        4910   1         1.2500E-03 -1.3904E-08 -7.3084E-08 -1.5643E-09 -1.9131E-09 -1.8679E-08
        4910   2         1.2500E-03 -1.7735E-08 -6.8694E-08 -1.6831E-09 -1.2315E-09 -1.7949E-08
        4910   3         1.2500E-03 -1.4049E-08 -7.3959E-08 -9.0869E-10 -2.4088E-09 -1.0459E-08
        4910   4         1.2500E-03 -1.7737E-08 -6.9427E-08 -1.0494E-09 -1.7988E-09 -9.7279E-09
        4910   5         1.2500E-03 -1.3818E-08 -7.3375E-08  1.7077E-09 -1.6883E-11 -1.8510E-08
        4910   6         1.2500E-03 -1.7625E-08 -6.9033E-08  1.5888E-09  2.3731E-10 -1.7801E-08
        4910   7         1.2500E-03 -1.3978E-08 -7.4243E-08  1.9359E-09 -5.1262E-10 -1.0361E-08
        4910   8         1.2500E-03 -1.7642E-08 -6.9758E-08  1.7952E-09 -3.2999E-10 -9.6518E-09
        4911   1         1.2500E-03 -2.8855E-08 -6.0072E-08 -6.7665E-10 -8.1644E-10 -1.4763E-08
        4911   2         1.2500E-03 -3.1783E-08 -5.6623E-08 -1.0378E-09 -3.6397E-10 -1.3673E-08
        4911   3         1.2500E-03 -2.8530E-08 -6.0836E-08 -2.3223E-10 -1.4217E-09 -8.3864E-09
        4911   4         1.2500E-03 -3.1357E-08 -5.7288E-08 -6.1004E-10 -1.0014E-09 -7.2964E-09
        4911   5         1.2500E-03 -2.8894E-08 -6.0355E-08  1.7299E-09  3.8649E-10 -1.4683E-08
        4911   6         1.2500E-03 -3.1811E-08 -5.6928E-08  1.3688E-09  5.3987E-10 -1.3609E-08
        4911   7         1.2500E-03 -2.8580E-08 -6.1114E-08  1.8752E-09 -2.1877E-10 -8.3388E-09
        4911   8         1.2500E-03 -3.1397E-08 -5.7587E-08  1.4974E-09 -9.7526E-11 -7.2655E-09
        4912   1         1.2500E-03 -3.9496E-08 -5.0532E-08 -5.4926E-11 -1.0802E-10 -9.5512E-09
        4912   2         1.2500E-03 -4.1308E-08 -4.8350E-08 -6.1230E-10  1.3878E-10 -8.2720E-09
        4912   3         1.2500E-03 -3.8887E-08 -5.1202E-08  1.9044E-10 -7.6046E-10 -5.5573E-09
        4912   4         1.2500E-03 -4.0641E-08 -4.8963E-08 -3.7309E-10 -5.2260E-10 -4.2781E-09
        4912   5         1.2500E-03 -3.9650E-08 -5.0781E-08  1.3860E-09  6.2349E-10 -9.5282E-09
        4912   6         1.2500E-03 -4.1459E-08 -4.8605E-08  8.2867E-10  6.9857E-10 -8.2552E-09
        4912   7         1.2500E-03 -3.9045E-08 -5.1449E-08  1.4597E-09 -2.8944E-11 -5.5432E-09
        4912   8         1.2500E-03 -4.0797E-08 -4.9216E-08  8.9616E-10  3.7186E-11 -4.2702E-09
        4913   1         1.2500E-03 -4.5220E-08 -4.5220E-08  2.5770E-10  2.5770E-10 -3.7036E-09
        4913   2         1.2500E-03 -4.5830E-08 -4.4475E-08 -4.0746E-10  3.3578E-10 -2.3480E-09
        4913   3         1.2500E-03 -4.4475E-08 -4.5830E-08  3.3578E-10 -4.0746E-10 -2.3480E-09
        4913   4         1.2500E-03 -4.5067E-08 -4.5067E-08 -3.3075E-10 -3.3075E-10 -9.9236E-10
        4913   5         1.2500E-03 -4.5441E-08 -4.5441E-08  7.3421E-10  7.3421E-10 -3.6998E-09
        4913   6         1.2500E-03 -4.6052E-08 -4.4697E-08  6.9050E-11  7.5651E-10 -2.3456E-09
        4913   7         1.2500E-03 -4.4697E-08 -4.6052E-08  7.5651E-10  6.9050E-11 -2.3456E-09
        4913   8         1.2500E-03 -4.5289E-08 -4.5289E-08  8.9976E-11  8.9976E-11 -9.9136E-10

  TOTAL                  49.13     -9.6753E-16 -1.0502E-15 -2.0912E-16  1.5410E-14  1.6513E-19                                    


          THE ANALYSIS HAS BEEN COMPLETED



                              ANALYSIS COMPLETE



     JOB TIME SUMMARY
       USER TIME (SEC)      =   6.9000    
       SYSTEM TIME (SEC)    =  0.70000    
       TOTAL CPU TIME (SEC) =   7.6000    
       WALLCLOCK TIME (SEC) =          9
